  Page 1                                    Mon Nov 30 10:39:00 2020

  ******************************************************************
  *                           E P A N E T                          *
  *                   Hydraulic and Water Quality                  *
  *                   Analysis for Pipe Networks                   *
  *                         Version 2.1                            *
  ******************************************************************
  
  Analysis begun Mon Nov 30 10:39:00 2020

  WARNING: Negative pressures at 0:00:00 hrs.
  
  Analysis ended Mon Nov 30 10:39:00 2020
