  Page 1                                    Mon Nov 30 17:33:38 2020

  ******************************************************************
  *                           E P A N E T                          *
  *                   Hydraulic and Water Quality                  *
  *                   Analysis for Pipe Networks                   *
  *                         Version 2.1                            *
  ******************************************************************
  
  Scenario: Base 
  Date:2020-11-30 17:33:36 
   
      Input Data File ................... test.inp
      Number of Junctions................ 749
      Number of Reservoirs............... 0
      Number of Tanks ................... 4
      Number of Pipes ................... 775
      Number of Pumps ................... 13
      Number of Valves .................. 0
      Headloss Formula .................. Hazen-Williams
      Hydraulic Timestep ................ 1.00 hrs
      Hydraulic Accuracy ................ 0.001000
      Status Check Frequency ............ 2
      Maximum Trials Checked ............ 10
      Damping Limit Threshold ........... 0.000000
      Maximum Trials .................... 40
      Quality Analysis .................. None
      Specific Gravity .................. 1.00
      Relative Kinematic Viscosity ...... 1.00
      Relative Chemical Diffusivity ..... 1.00
      Demand Multiplier ................. 1.00
      Total Duration .................... 24.00 hrs
      Reporting Criteria:
         All Nodes
         All Links
   
  Analysis begun Mon Nov 30 17:33:38 2020

   
  Hydraulic Status:
  -----------------------------------------------------------------------
     0:00:00: Balanced after 11 trials
     0:00:00: Tank TK0000004 is emptying at 30.00 m
     0:00:00: Tank TK0000003 is emptying at 30.00 m
     0:00:00: Tank TK0000002 is emptying at 30.00 m
     0:00:00: Tank TK0000001 is emptying at 30.00 m
   
     1:00:00: Balanced after 2 trials
   
     2:00:00: Balanced after 2 trials
   
     3:00:00: Balanced after 2 trials
   
     4:00:00: Balanced after 3 trials
   
     5:00:00: Balanced after 2 trials
   
     6:00:00: Balanced after 3 trials
   
     7:00:00: Balanced after 3 trials
   
     8:00:00: Balanced after 2 trials
   
     9:00:00: Balanced after 3 trials
   
    10:00:00: Balanced after 2 trials
   
    11:00:00: Balanced after 2 trials
   
    12:00:00: Balanced after 2 trials
   
    13:00:00: Balanced after 2 trials
   
    14:00:00: Balanced after 3 trials
   
    15:00:00: Balanced after 2 trials
   
    16:00:00: Balanced after 3 trials
   
    17:00:00: Balanced after 2 trials
   
    18:00:00: Balanced after 2 trials
   
    19:00:00: Balanced after 2 trials
   
    20:00:00: Balanced after 2 trials
   
    21:00:00: Balanced after 3 trials
   
    22:00:00: Balanced after 2 trials
   
    23:00:00: Balanced after 3 trials
   
    24:00:00: Balanced after 7 trials
   
   
  Hydraulic Status:
  -----------------------------------------------------------------------
     0:00:00: Balanced after 4 trials
     0:00:00: Tank TK0000004 is emptying at 30.00 m
     0:00:00: Tank TK0000003 is emptying at 30.00 m
     0:00:00: Tank TK0000002 is emptying at 30.00 m
     0:00:00: Tank TK0000001 is emptying at 30.00 m
     0:00:00: Pump PU0000006 closed
     0:00:00: Pump PU0000001 closed
   
     1:00:00: Balanced after 2 trials
   
     2:00:00: Balanced after 2 trials
   
     3:00:00: Balanced after 2 trials
   
     4:00:00: Balanced after 3 trials
   
     5:00:00: Balanced after 2 trials
   
     6:00:00: Balanced after 3 trials
   
     7:00:00: Balanced after 3 trials
   
     8:00:00: Balanced after 2 trials
   
     9:00:00: Balanced after 3 trials
   
    10:00:00: Balanced after 2 trials
   
    11:00:00: Balanced after 2 trials
   
    12:00:00: Balanced after 2 trials
   
    13:00:00: Balanced after 2 trials
   
    14:00:00: Balanced after 3 trials
   
    15:00:00: Balanced after 2 trials
   
    16:00:00: Balanced after 3 trials
   
    17:00:00: Balanced after 2 trials
   
    18:00:00: Balanced after 2 trials
   
    19:00:00: Balanced after 2 trials
   
    20:00:00: Balanced after 2 trials
   
    21:00:00: Balanced after 3 trials
   
    22:00:00: Balanced after 2 trials
   
    23:00:00: Balanced after 3 trials
   
    24:00:00: Balanced after 7 trials
   
   
  Hydraulic Status:
  -----------------------------------------------------------------------
     0:00:00: Balanced after 4 trials
     0:00:00: Tank TK0000004 is emptying at 30.00 m
     0:00:00: Tank TK0000003 is emptying at 30.00 m
     0:00:00: Tank TK0000002 is emptying at 30.00 m
     0:00:00: Tank TK0000001 is emptying at 30.00 m
     0:00:00: Pump PU0000009 closed
     0:00:00: Pump PU0000008 closed
     0:00:00: Pump PU0000006 closed
     0:00:00: Pump PU0000004 closed
     0:00:00: Pump PU0000002 closed
     0:00:00: Pump PU0000001 closed
   
     1:00:00: Balanced after 2 trials
   
     2:00:00: Balanced after 2 trials
   
     3:00:00: Balanced after 2 trials
   
     4:00:00: Balanced after 3 trials
   
     5:00:00: Balanced after 2 trials
   
     6:00:00: Balanced after 3 trials
   
     7:00:00: Balanced after 3 trials
   
     8:00:00: Balanced after 2 trials
   
     9:00:00: Balanced after 3 trials
   
    10:00:00: Balanced after 2 trials
   
    11:00:00: Balanced after 2 trials
   
    12:00:00: Balanced after 2 trials
   
    13:00:00: Balanced after 2 trials
   
    14:00:00: Balanced after 3 trials
   
    15:00:00: Balanced after 2 trials
   
    16:00:00: Balanced after 3 trials
   
    17:00:00: Balanced after 2 trials
   
    18:00:00: Balanced after 2 trials
   
    19:00:00: Balanced after 2 trials
   
    20:00:00: Balanced after 2 trials
   
    21:00:00: Balanced after 3 trials
   
    22:00:00: Balanced after 2 trials
   
    23:00:00: Balanced after 3 trials
   
    24:00:00: Balanced after 7 trials
   
   
  Hydraulic Status:
  -----------------------------------------------------------------------
     0:00:00: Balanced after 9 trials
     0:00:00: Tank TK0000004 is emptying at 30.00 m
     0:00:00: Tank TK0000003 is emptying at 30.00 m
     0:00:00: Tank TK0000002 is emptying at 30.00 m
     0:00:00: Tank TK0000001 is emptying at 30.00 m
     0:00:00: Pump PU0000012 closed
     0:00:00: Pump PU0000011 closed
     0:00:00: Pump PU0000003 closed
     0:00:00: Pump PU0000002 closed
     0:00:00: Pump PU0000001 closed
   
     1:00:00: Balanced after 2 trials
   
     2:00:00: Balanced after 2 trials
   
     3:00:00: Balanced after 2 trials
   
     4:00:00: Balanced after 3 trials
   
     5:00:00: Balanced after 3 trials
   
     6:00:00: Balanced after 4 trials
   
     7:00:00: Balanced after 3 trials
   
     8:00:00: Balanced after 1 trials
   
     9:00:00: Balanced after 3 trials
   
    10:00:00: Balanced after 2 trials
   
    11:00:00: Balanced after 2 trials
   
    12:00:00: Balanced after 2 trials
   
    13:00:00: Balanced after 2 trials
   
    14:00:00: Balanced after 3 trials
   
    15:00:00: Balanced after 2 trials
   
    16:00:00: Balanced after 3 trials
   
    17:00:00: Balanced after 2 trials
   
    18:00:00: Balanced after 2 trials
   
    19:00:00: Balanced after 1 trials
   
    20:00:00: Balanced after 1 trials
   
    21:00:00: Balanced after 3 trials
   
    22:00:00: Balanced after 2 trials
   
    23:00:00: Balanced after 3 trials
   
    24:00:00: Balanced after 4 trials
   
   
  Hydraulic Status:
  -----------------------------------------------------------------------
     0:00:00: Balanced after 7 trials
     0:00:00: Tank TK0000004 is emptying at 30.00 m
     0:00:00: Tank TK0000003 is emptying at 30.00 m
     0:00:00: Tank TK0000002 is emptying at 30.00 m
     0:00:00: Tank TK0000001 is emptying at 30.00 m
     0:00:00: Pump PU0000011 closed
     0:00:00: Pump PU0000005 closed
     0:00:00: Pump PU0000003 closed
     0:00:00: Pump PU0000002 closed
   
     1:00:00: Balanced after 2 trials
   
     2:00:00: Balanced after 2 trials
   
     3:00:00: Balanced after 2 trials
   
     4:00:00: Balanced after 3 trials
   
     5:00:00: Balanced after 2 trials
   
     6:00:00: Balanced after 3 trials
   
     7:00:00: Balanced after 3 trials
   
     8:00:00: Balanced after 2 trials
   
     9:00:00: Balanced after 3 trials
   
    10:00:00: Balanced after 2 trials
   
    11:00:00: Balanced after 2 trials
   
    12:00:00: Balanced after 2 trials
   
    13:00:00: Balanced after 2 trials
   
    14:00:00: Balanced after 3 trials
   
    15:00:00: Balanced after 2 trials
   
    16:00:00: Balanced after 3 trials
   
    17:00:00: Balanced after 2 trials
   
    18:00:00: Balanced after 2 trials
   
    19:00:00: Balanced after 2 trials
   
    20:00:00: Balanced after 2 trials
   
    21:00:00: Balanced after 3 trials
   
    22:00:00: Balanced after 2 trials
   
    23:00:00: Balanced after 3 trials
   
    24:00:00: Balanced after 7 trials
   
   
  Hydraulic Status:
  -----------------------------------------------------------------------
     0:00:00: Balanced after 8 trials
     0:00:00: Tank TK0000004 is emptying at 30.00 m
     0:00:00: Tank TK0000003 is emptying at 30.00 m
     0:00:00: Tank TK0000002 is emptying at 30.00 m
     0:00:00: Tank TK0000001 is closed at 30.00 m
     0:00:00: Pump PU0000012 closed
     0:00:00: Pump PU0000011 closed
     0:00:00: Pump PU0000009 closed
     0:00:00: Pump PU0000008 closed
     0:00:00: Pump PU0000007 closed
     0:00:00: Pump PU0000006 closed
     0:00:00: Pump PU0000002 closed
   
     1:00:00: Balanced after 2 trials
   
     2:00:00: Balanced after 2 trials
   
     3:00:00: Balanced after 2 trials
   
     4:00:00: Balanced after 3 trials
   
     5:00:00: Balanced after 3 trials
   
     6:00:00: Balanced after 3 trials
   
     7:00:00: Balanced after 3 trials
   
     8:00:00: Balanced after 1 trials
   
     9:00:00: Balanced after 3 trials
   
    10:00:00: Balanced after 1 trials
   
    11:00:00: Balanced after 2 trials
   
    12:00:00: Balanced after 2 trials
   
    13:00:00: Balanced after 1 trials
   
    14:00:00: Balanced after 3 trials
   
    15:00:00: Balanced after 1 trials
   
    16:00:00: Balanced after 3 trials
   
    17:00:00: Balanced after 2 trials
   
    18:00:00: Balanced after 2 trials
   
    19:00:00: Balanced after 1 trials
   
    20:00:00: Balanced after 1 trials
   
    21:00:00: Balanced after 3 trials
   
    22:00:00: Balanced after 1 trials
   
    23:00:00: Balanced after 3 trials
   
    24:00:00: Balanced after 4 trials
   
   
  Hydraulic Status:
  -----------------------------------------------------------------------
     0:00:00: Balanced after 9 trials
     0:00:00: Tank TK0000004 is emptying at 30.00 m
     0:00:00: Tank TK0000003 is emptying at 30.00 m
     0:00:00: Tank TK0000002 is emptying at 30.00 m
     0:00:00: Tank TK0000001 is emptying at 30.00 m
     0:00:00: Pump PU0000012 closed
     0:00:00: Pump PU0000006 closed
     0:00:00: Pump PU0000005 closed
     0:00:00: Pump PU0000003 closed
   
     1:00:00: Balanced after 2 trials
   
     2:00:00: Balanced after 2 trials
   
     3:00:00: Balanced after 2 trials
   
     4:00:00: Balanced after 3 trials
   
     5:00:00: Balanced after 2 trials
   
     6:00:00: Balanced after 3 trials
   
     7:00:00: Balanced after 3 trials
   
     8:00:00: Balanced after 2 trials
   
     9:00:00: Balanced after 3 trials
   
    10:00:00: Balanced after 2 trials
   
    11:00:00: Balanced after 2 trials
   
    12:00:00: Balanced after 2 trials
   
    13:00:00: Balanced after 2 trials
   
    14:00:00: Balanced after 3 trials
   
    15:00:00: Balanced after 2 trials
   
    16:00:00: Balanced after 3 trials
   
    17:00:00: Balanced after 2 trials
   
    18:00:00: Balanced after 2 trials
   
    19:00:00: Balanced after 2 trials
   
    20:00:00: Balanced after 2 trials
   
    21:00:00: Balanced after 3 trials
   
    22:00:00: Balanced after 2 trials
   
    23:00:00: Balanced after 3 trials
   
    24:00:00: Balanced after 7 trials
   
   
  Hydraulic Status:
  -----------------------------------------------------------------------
     0:00:00: Balanced after 6 trials
     0:00:00: Tank TK0000004 is emptying at 30.00 m
     0:00:00: Tank TK0000003 is emptying at 30.00 m
     0:00:00: Tank TK0000002 is emptying at 30.00 m
     0:00:00: Tank TK0000001 is emptying at 30.00 m
     0:00:00: Pump PU0000006 closed
     0:00:00: Pump PU0000005 closed
     0:00:00: Pump PU0000003 closed
   
     1:00:00: Balanced after 2 trials
   
     2:00:00: Balanced after 2 trials
   
     3:00:00: Balanced after 2 trials
   
     4:00:00: Balanced after 3 trials
   
     5:00:00: Balanced after 2 trials
   
     6:00:00: Balanced after 3 trials
   
     7:00:00: Balanced after 3 trials
   
     8:00:00: Balanced after 2 trials
   
     9:00:00: Balanced after 3 trials
   
    10:00:00: Balanced after 2 trials
   
    11:00:00: Balanced after 2 trials
   
    12:00:00: Balanced after 2 trials
   
    13:00:00: Balanced after 2 trials
   
    14:00:00: Balanced after 3 trials
   
    15:00:00: Balanced after 2 trials
   
    16:00:00: Balanced after 3 trials
   
    17:00:00: Balanced after 2 trials
   
    18:00:00: Balanced after 2 trials
   
    19:00:00: Balanced after 2 trials
   
    20:00:00: Balanced after 2 trials
   
    21:00:00: Balanced after 3 trials
   
    22:00:00: Balanced after 2 trials
   
    23:00:00: Balanced after 3 trials
   
    24:00:00: Balanced after 7 trials
   
   
  Hydraulic Status:
  -----------------------------------------------------------------------
     0:00:00: Balanced after 9 trials
     0:00:00: Tank TK0000004 is emptying at 30.00 m
     0:00:00: Tank TK0000003 is emptying at 30.00 m
     0:00:00: Tank TK0000002 is emptying at 30.00 m
     0:00:00: Tank TK0000001 is emptying at 30.00 m
     0:00:00: Pump PU0000011 closed
     0:00:00: Pump PU0000007 closed
     0:00:00: Pump PU0000006 closed
     0:00:00: Pump PU0000004 closed
     0:00:00: Pump PU0000003 closed
   
     1:00:00: Balanced after 2 trials
   
     2:00:00: Balanced after 2 trials
   
     3:00:00: Balanced after 2 trials
   
     4:00:00: Balanced after 3 trials
   
     5:00:00: Balanced after 2 trials
   
     6:00:00: Balanced after 3 trials
   
     7:00:00: Balanced after 3 trials
   
     8:00:00: Balanced after 2 trials
   
     9:00:00: Balanced after 3 trials
   
    10:00:00: Balanced after 2 trials
   
    11:00:00: Balanced after 2 trials
   
    12:00:00: Balanced after 2 trials
   
    13:00:00: Balanced after 2 trials
   
    14:00:00: Balanced after 3 trials
   
    15:00:00: Balanced after 2 trials
   
    16:00:00: Balanced after 3 trials
   
    17:00:00: Balanced after 2 trials
   
    18:00:00: Balanced after 2 trials
   
    19:00:00: Balanced after 2 trials
   
    20:00:00: Balanced after 2 trials
   
    21:00:00: Balanced after 3 trials
   
    22:00:00: Balanced after 2 trials
   
    23:00:00: Balanced after 3 trials
   
    24:00:00: Balanced after 7 trials
   
   
  Hydraulic Status:
  -----------------------------------------------------------------------
     0:00:00: Balanced after 8 trials
     0:00:00: Tank TK0000004 is emptying at 30.00 m
     0:00:00: Tank TK0000003 is emptying at 30.00 m
     0:00:00: Tank TK0000002 is emptying at 30.00 m
     0:00:00: Tank TK0000001 is emptying at 30.00 m
     0:00:00: Pump PU0000010 closed
     0:00:00: Pump PU0000008 closed
     0:00:00: Pump PU0000007 closed
     0:00:00: Pump PU0000004 closed
   
     1:00:00: Balanced after 2 trials
   
     2:00:00: Balanced after 2 trials
   
     3:00:00: Balanced after 2 trials
   
     4:00:00: Balanced after 3 trials
   
     5:00:00: Balanced after 2 trials
   
     6:00:00: Balanced after 3 trials
   
     7:00:00: Balanced after 3 trials
   
     8:00:00: Balanced after 2 trials
   
     9:00:00: Balanced after 3 trials
   
    10:00:00: Balanced after 2 trials
   
    11:00:00: Balanced after 2 trials
   
    12:00:00: Balanced after 2 trials
   
    13:00:00: Balanced after 2 trials
   
    14:00:00: Balanced after 3 trials
   
    15:00:00: Balanced after 2 trials
   
    16:00:00: Balanced after 3 trials
   
    17:00:00: Balanced after 2 trials
   
    18:00:00: Balanced after 2 trials
   
    19:00:00: Balanced after 2 trials
   
    20:00:00: Balanced after 2 trials
   
    21:00:00: Balanced after 3 trials
   
    22:00:00: Balanced after 2 trials
   
    23:00:00: Balanced after 3 trials
   
    24:00:00: Balanced after 7 trials
   
   
  Hydraulic Status:
  -----------------------------------------------------------------------
     0:00:00: Balanced after 7 trials
     0:00:00: Tank TK0000004 is emptying at 30.00 m
     0:00:00: Tank TK0000003 is emptying at 30.00 m
     0:00:00: Tank TK0000002 is closed at 30.00 m
     0:00:00: Tank TK0000001 is emptying at 30.00 m
     0:00:00: Pump PU0000012 closed
     0:00:00: Pump PU0000011 closed
     0:00:00: Pump PU0000010 closed
     0:00:00: Pump PU0000009 closed
     0:00:00: Pump PU0000007 closed
     0:00:00: Pump PU0000005 closed
     0:00:00: Pump PU0000001 closed
   
     1:00:00: Balanced after 2 trials
   
     2:00:00: Balanced after 2 trials
   
     3:00:00: Balanced after 2 trials
   
     4:00:00: Balanced after 3 trials
   
     5:00:00: Balanced after 2 trials
   
     6:00:00: Balanced after 3 trials
   
     7:00:00: Balanced after 3 trials
   
  WARNING: Negative pressures at 7:00:00 hrs.
  
     8:00:00: Balanced after 1 trials
   
  WARNING: Negative pressures at 8:00:00 hrs.
  
     9:00:00: Balanced after 2 trials
   
    10:00:00: Balanced after 1 trials
   
    11:00:00: Balanced after 2 trials
   
    12:00:00: Balanced after 2 trials
   
    13:00:00: Balanced after 1 trials
   
    14:00:00: Balanced after 3 trials
   
    15:00:00: Balanced after 2 trials
   
    16:00:00: Balanced after 3 trials
   
    17:00:00: Balanced after 2 trials
   
    18:00:00: Balanced after 2 trials
   
  WARNING: Negative pressures at 18:00:00 hrs.
  
    19:00:00: Balanced after 1 trials
   
  WARNING: Negative pressures at 19:00:00 hrs.
  
    20:00:00: Balanced after 1 trials
   
  WARNING: Negative pressures at 20:00:00 hrs.
  
    21:00:00: Balanced after 2 trials
   
    22:00:00: Balanced after 1 trials
   
    23:00:00: Balanced after 2 trials
   
    24:00:00: Balanced after 5 trials
   
   
  Hydraulic Status:
  -----------------------------------------------------------------------
     0:00:00: Balanced after 8 trials
     0:00:00: Tank TK0000004 is emptying at 30.00 m
     0:00:00: Tank TK0000003 is emptying at 30.00 m
     0:00:00: Tank TK0000002 is emptying at 30.00 m
     0:00:00: Tank TK0000001 is emptying at 30.00 m
     0:00:00: Pump PU0000012 closed
     0:00:00: Pump PU0000011 closed
     0:00:00: Pump PU0000008 closed
     0:00:00: Pump PU0000003 closed
     0:00:00: Pump PU0000002 closed
     0:00:00: Pump PU0000001 closed
   
     1:00:00: Balanced after 2 trials
   
     2:00:00: Balanced after 2 trials
   
     3:00:00: Balanced after 2 trials
   
     4:00:00: Balanced after 3 trials
   
     5:00:00: Balanced after 3 trials
   
     6:00:00: Balanced after 4 trials
   
     7:00:00: Balanced after 3 trials
   
     8:00:00: Balanced after 1 trials
   
     9:00:00: Balanced after 3 trials
   
    10:00:00: Balanced after 2 trials
   
    11:00:00: Balanced after 2 trials
   
    12:00:00: Balanced after 2 trials
   
    13:00:00: Balanced after 2 trials
   
    14:00:00: Balanced after 3 trials
   
    15:00:00: Balanced after 2 trials
   
    16:00:00: Balanced after 3 trials
   
    17:00:00: Balanced after 2 trials
   
    18:00:00: Balanced after 2 trials
   
    19:00:00: Balanced after 1 trials
   
    20:00:00: Balanced after 1 trials
   
    21:00:00: Balanced after 3 trials
   
    22:00:00: Balanced after 2 trials
   
    23:00:00: Balanced after 3 trials
   
    24:00:00: Balanced after 4 trials
   
   
  Hydraulic Status:
  -----------------------------------------------------------------------
     0:00:00: Balanced after 5 trials
     0:00:00: Tank TK0000004 is emptying at 30.00 m
     0:00:00: Tank TK0000003 is emptying at 30.00 m
     0:00:00: Tank TK0000002 is closed at 30.00 m
     0:00:00: Tank TK0000001 is emptying at 30.00 m
     0:00:00: Pump PU0000013 closed
     0:00:00: Pump PU0000012 closed
     0:00:00: Pump PU0000011 closed
     0:00:00: Pump PU0000010 closed
     0:00:00: Pump PU0000009 closed
     0:00:00: Pump PU0000008 closed
     0:00:00: Pump PU0000005 closed
     0:00:00: Pump PU0000003 closed
   
     1:00:00: Balanced after 2 trials
   
     2:00:00: Balanced after 2 trials
   
     3:00:00: Balanced after 2 trials
   
     4:00:00: Balanced after 3 trials
   
     5:00:00: Balanced after 2 trials
   
     6:00:00: Balanced after 3 trials
   
     7:00:00: Balanced after 3 trials
   
  WARNING: Negative pressures at 7:00:00 hrs.
  
     8:00:00: Balanced after 1 trials
   
  WARNING: Negative pressures at 8:00:00 hrs.
  
     9:00:00: Balanced after 2 trials
   
    10:00:00: Balanced after 1 trials
   
    11:00:00: Balanced after 2 trials
   
    12:00:00: Balanced after 2 trials
   
    13:00:00: Balanced after 1 trials
   
    14:00:00: Balanced after 3 trials
   
    15:00:00: Balanced after 2 trials
   
    16:00:00: Balanced after 3 trials
   
    17:00:00: Balanced after 2 trials
   
    18:00:00: Balanced after 2 trials
   
  WARNING: Negative pressures at 18:00:00 hrs.
  
    19:00:00: Balanced after 1 trials
   
  WARNING: Negative pressures at 19:00:00 hrs.
  
    20:00:00: Balanced after 1 trials
   
  WARNING: Negative pressures at 20:00:00 hrs.
  
    21:00:00: Balanced after 2 trials
   
    22:00:00: Balanced after 1 trials
   
    23:00:00: Balanced after 2 trials
   
    24:00:00: Balanced after 6 trials
   
   
  Hydraulic Status:
  -----------------------------------------------------------------------
     0:00:00: Balanced after 9 trials
     0:00:00: Tank TK0000004 is emptying at 30.00 m
     0:00:00: Tank TK0000003 is emptying at 30.00 m
     0:00:00: Tank TK0000002 is emptying at 30.00 m
     0:00:00: Tank TK0000001 is emptying at 30.00 m
     0:00:00: Pump PU0000009 closed
     0:00:00: Pump PU0000007 closed
     0:00:00: Pump PU0000006 closed
     0:00:00: Pump PU0000004 closed
     0:00:00: Pump PU0000001 closed
   
     1:00:00: Balanced after 2 trials
   
     2:00:00: Balanced after 2 trials
   
     3:00:00: Balanced after 2 trials
   
     4:00:00: Balanced after 3 trials
   
     5:00:00: Balanced after 2 trials
   
     6:00:00: Balanced after 3 trials
   
     7:00:00: Balanced after 3 trials
   
     8:00:00: Balanced after 2 trials
   
     9:00:00: Balanced after 3 trials
   
    10:00:00: Balanced after 2 trials
   
    11:00:00: Balanced after 2 trials
   
    12:00:00: Balanced after 2 trials
   
    13:00:00: Balanced after 2 trials
   
    14:00:00: Balanced after 3 trials
   
    15:00:00: Balanced after 2 trials
   
    16:00:00: Balanced after 3 trials
   
    17:00:00: Balanced after 2 trials
   
    18:00:00: Balanced after 2 trials
   
    19:00:00: Balanced after 2 trials
   
    20:00:00: Balanced after 2 trials
   
    21:00:00: Balanced after 3 trials
   
    22:00:00: Balanced after 2 trials
   
    23:00:00: Balanced after 3 trials
   
    24:00:00: Balanced after 7 trials
   
   
  Hydraulic Status:
  -----------------------------------------------------------------------
     0:00:00: Balanced after 8 trials
     0:00:00: Tank TK0000004 is closed at 30.00 m
     0:00:00: Tank TK0000003 is emptying at 30.00 m
     0:00:00: Tank TK0000002 is emptying at 30.00 m
     0:00:00: Tank TK0000001 is emptying at 30.00 m
     0:00:00: Pump PU0000013 closed
     0:00:00: Pump PU0000010 closed
     0:00:00: Pump PU0000009 closed
     0:00:00: Pump PU0000006 closed
     0:00:00: Pump PU0000003 closed
     0:00:00: Pump PU0000002 closed
     0:00:00: Pump PU0000001 closed
   
     1:00:00: Balanced after 2 trials
   
     2:00:00: Balanced after 2 trials
   
     3:00:00: Balanced after 2 trials
   
     4:00:00: Balanced after 3 trials
   
     5:00:00: Balanced after 2 trials
   
     6:00:00: Balanced after 4 trials
   
     7:00:00: Balanced after 3 trials
   
     8:00:00: Balanced after 1 trials
   
     9:00:00: Balanced after 3 trials
   
    10:00:00: Balanced after 2 trials
   
    11:00:00: Balanced after 2 trials
   
    12:00:00: Balanced after 2 trials
   
    13:00:00: Balanced after 2 trials
   
    14:00:00: Balanced after 3 trials
   
    15:00:00: Balanced after 2 trials
   
    16:00:00: Balanced after 3 trials
   
    17:00:00: Balanced after 2 trials
   
    18:00:00: Balanced after 2 trials
   
    19:00:00: Balanced after 1 trials
   
    20:00:00: Balanced after 1 trials
   
    21:00:00: Balanced after 3 trials
   
    22:00:00: Balanced after 2 trials
   
    23:00:00: Balanced after 3 trials
   
    24:00:00: Balanced after 4 trials
   
   
  Hydraulic Status:
  -----------------------------------------------------------------------
     0:00:00: Balanced after 8 trials
     0:00:00: Tank TK0000004 is emptying at 30.00 m
     0:00:00: Tank TK0000003 is emptying at 30.00 m
     0:00:00: Tank TK0000002 is emptying at 30.00 m
     0:00:00: Tank TK0000001 is emptying at 30.00 m
     0:00:00: Pump PU0000011 closed
     0:00:00: Pump PU0000010 closed
     0:00:00: Pump PU0000007 closed
     0:00:00: Pump PU0000006 closed
     0:00:00: Pump PU0000003 closed
     0:00:00: Pump PU0000001 closed
   
     1:00:00: Balanced after 2 trials
   
     2:00:00: Balanced after 2 trials
   
     3:00:00: Balanced after 2 trials
   
     4:00:00: Balanced after 3 trials
   
     5:00:00: Balanced after 3 trials
   
     6:00:00: Balanced after 3 trials
   
     7:00:00: Balanced after 3 trials
   
     8:00:00: Balanced after 1 trials
   
     9:00:00: Balanced after 3 trials
   
    10:00:00: Balanced after 2 trials
   
    11:00:00: Balanced after 2 trials
   
    12:00:00: Balanced after 2 trials
   
    13:00:00: Balanced after 2 trials
   
    14:00:00: Balanced after 3 trials
   
    15:00:00: Balanced after 2 trials
   
    16:00:00: Balanced after 3 trials
   
    17:00:00: Balanced after 2 trials
   
    18:00:00: Balanced after 2 trials
   
    19:00:00: Balanced after 1 trials
   
    20:00:00: Balanced after 1 trials
   
    21:00:00: Balanced after 3 trials
   
    22:00:00: Balanced after 2 trials
   
    23:00:00: Balanced after 3 trials
   
    24:00:00: Balanced after 4 trials
   
   
  Hydraulic Status:
  -----------------------------------------------------------------------
     0:00:00: Balanced after 6 trials
     0:00:00: Tank TK0000004 is emptying at 30.00 m
     0:00:00: Tank TK0000003 is emptying at 30.00 m
     0:00:00: Tank TK0000002 is emptying at 30.00 m
     0:00:00: Tank TK0000001 is closed at 30.00 m
     0:00:00: Pump PU0000010 closed
     0:00:00: Pump PU0000009 closed
     0:00:00: Pump PU0000008 closed
     0:00:00: Pump PU0000007 closed
     0:00:00: Pump PU0000006 closed
     0:00:00: Pump PU0000005 closed
     0:00:00: Pump PU0000003 closed
     0:00:00: Pump PU0000001 closed
   
     1:00:00: Balanced after 2 trials
   
     2:00:00: Balanced after 2 trials
   
     3:00:00: Balanced after 2 trials
   
     4:00:00: Balanced after 3 trials
   
     5:00:00: Balanced after 2 trials
   
     6:00:00: Balanced after 3 trials
   
     7:00:00: Balanced after 3 trials
   
     8:00:00: Balanced after 1 trials
   
     9:00:00: Balanced after 3 trials
   
    10:00:00: Balanced after 2 trials
   
    11:00:00: Balanced after 2 trials
   
    12:00:00: Balanced after 2 trials
   
    13:00:00: Balanced after 2 trials
   
    14:00:00: Balanced after 3 trials
   
    15:00:00: Balanced after 2 trials
   
    16:00:00: Balanced after 3 trials
   
    17:00:00: Balanced after 2 trials
   
    18:00:00: Balanced after 2 trials
   
    19:00:00: Balanced after 1 trials
   
    20:00:00: Balanced after 1 trials
   
    21:00:00: Balanced after 3 trials
   
    22:00:00: Balanced after 2 trials
   
    23:00:00: Balanced after 3 trials
   
    24:00:00: Balanced after 4 trials
   
   
  Hydraulic Status:
  -----------------------------------------------------------------------
     0:00:00: Balanced after 9 trials
     0:00:00: Tank TK0000004 is emptying at 30.00 m
     0:00:00: Tank TK0000003 is emptying at 30.00 m
     0:00:00: Tank TK0000002 is emptying at 30.00 m
     0:00:00: Tank TK0000001 is emptying at 30.00 m
     0:00:00: Pump PU0000012 closed
     0:00:00: Pump PU0000011 closed
     0:00:00: Pump PU0000007 closed
     0:00:00: Pump PU0000004 closed
     0:00:00: Pump PU0000003 closed
     0:00:00: Pump PU0000002 closed
   
     1:00:00: Balanced after 2 trials
   
     2:00:00: Balanced after 2 trials
   
     3:00:00: Balanced after 2 trials
   
     4:00:00: Balanced after 3 trials
   
     5:00:00: Balanced after 3 trials
   
     6:00:00: Balanced after 3 trials
   
     7:00:00: Balanced after 3 trials
   
     8:00:00: Balanced after 1 trials
   
     9:00:00: Balanced after 3 trials
   
    10:00:00: Balanced after 2 trials
   
    11:00:00: Balanced after 2 trials
   
    12:00:00: Balanced after 2 trials
   
    13:00:00: Balanced after 2 trials
   
    14:00:00: Balanced after 3 trials
   
    15:00:00: Balanced after 2 trials
   
    16:00:00: Balanced after 3 trials
   
    17:00:00: Balanced after 2 trials
   
    18:00:00: Balanced after 2 trials
   
    19:00:00: Balanced after 1 trials
   
    20:00:00: Balanced after 1 trials
   
    21:00:00: Balanced after 3 trials
   
    22:00:00: Balanced after 2 trials
   
    23:00:00: Balanced after 3 trials
   
    24:00:00: Balanced after 4 trials
   
   
  Hydraulic Status:
  -----------------------------------------------------------------------
     0:00:00: Balanced after 8 trials
     0:00:00: Tank TK0000004 is emptying at 30.00 m
     0:00:00: Tank TK0000003 is emptying at 30.00 m
     0:00:00: Tank TK0000002 is emptying at 30.00 m
     0:00:00: Tank TK0000001 is emptying at 30.00 m
     0:00:00: Pump PU0000012 closed
     0:00:00: Pump PU0000009 closed
     0:00:00: Pump PU0000002 closed
   
     1:00:00: Balanced after 2 trials
   
     2:00:00: Balanced after 2 trials
   
     3:00:00: Balanced after 2 trials
   
     4:00:00: Balanced after 3 trials
   
     5:00:00: Balanced after 2 trials
   
     6:00:00: Balanced after 3 trials
   
     7:00:00: Balanced after 3 trials
   
     8:00:00: Balanced after 2 trials
   
     9:00:00: Balanced after 3 trials
   
    10:00:00: Balanced after 2 trials
   
    11:00:00: Balanced after 2 trials
   
    12:00:00: Balanced after 2 trials
   
    13:00:00: Balanced after 2 trials
   
    14:00:00: Balanced after 3 trials
   
    15:00:00: Balanced after 2 trials
   
    16:00:00: Balanced after 3 trials
   
    17:00:00: Balanced after 2 trials
   
    18:00:00: Balanced after 2 trials
   
    19:00:00: Balanced after 2 trials
   
    20:00:00: Balanced after 2 trials
   
    21:00:00: Balanced after 3 trials
   
    22:00:00: Balanced after 2 trials
   
    23:00:00: Balanced after 3 trials
   
    24:00:00: Balanced after 7 trials
   
   
  Hydraulic Status:
  -----------------------------------------------------------------------
     0:00:00: Balanced after 8 trials
     0:00:00: Tank TK0000004 is emptying at 30.00 m
     0:00:00: Tank TK0000003 is emptying at 30.00 m
     0:00:00: Tank TK0000002 is emptying at 30.00 m
     0:00:00: Tank TK0000001 is emptying at 30.00 m
     0:00:00: Pump PU0000012 closed
     0:00:00: Pump PU0000011 closed
     0:00:00: Pump PU0000002 closed
   
     1:00:00: Balanced after 2 trials
   
     2:00:00: Balanced after 2 trials
   
     3:00:00: Balanced after 2 trials
   
     4:00:00: Balanced after 3 trials
   
     5:00:00: Balanced after 3 trials
   
     6:00:00: Balanced after 3 trials
   
     7:00:00: Balanced after 3 trials
   
     8:00:00: Balanced after 1 trials
   
     9:00:00: Balanced after 3 trials
   
    10:00:00: Balanced after 2 trials
   
    11:00:00: Balanced after 2 trials
   
    12:00:00: Balanced after 2 trials
   
    13:00:00: Balanced after 2 trials
   
    14:00:00: Balanced after 3 trials
   
    15:00:00: Balanced after 2 trials
   
    16:00:00: Balanced after 3 trials
   
    17:00:00: Balanced after 2 trials
   
    18:00:00: Balanced after 2 trials
   
    19:00:00: Balanced after 1 trials
   
    20:00:00: Balanced after 1 trials
   
    21:00:00: Balanced after 3 trials
   
    22:00:00: Balanced after 2 trials
   
    23:00:00: Balanced after 3 trials
   
    24:00:00: Balanced after 4 trials
   
   
  Hydraulic Status:
  -----------------------------------------------------------------------
     0:00:00: Balanced after 7 trials
     0:00:00: Tank TK0000004 is emptying at 30.00 m
     0:00:00: Tank TK0000003 is emptying at 30.00 m
     0:00:00: Tank TK0000002 is emptying at 30.00 m
     0:00:00: Tank TK0000001 is emptying at 30.00 m
     0:00:00: Pump PU0000011 closed
     0:00:00: Pump PU0000007 closed
     0:00:00: Pump PU0000004 closed
     0:00:00: Pump PU0000001 closed
   
     1:00:00: Balanced after 2 trials
   
     2:00:00: Balanced after 2 trials
   
     3:00:00: Balanced after 2 trials
   
     4:00:00: Balanced after 3 trials
   
     5:00:00: Balanced after 2 trials
   
     6:00:00: Balanced after 3 trials
   
     7:00:00: Balanced after 3 trials
   
     8:00:00: Balanced after 2 trials
   
     9:00:00: Balanced after 3 trials
   
    10:00:00: Balanced after 2 trials
   
    11:00:00: Balanced after 2 trials
   
    12:00:00: Balanced after 2 trials
   
    13:00:00: Balanced after 2 trials
   
    14:00:00: Balanced after 3 trials
   
    15:00:00: Balanced after 2 trials
   
    16:00:00: Balanced after 3 trials
   
    17:00:00: Balanced after 2 trials
   
    18:00:00: Balanced after 2 trials
   
    19:00:00: Balanced after 2 trials
   
    20:00:00: Balanced after 2 trials
   
    21:00:00: Balanced after 3 trials
   
    22:00:00: Balanced after 2 trials
   
    23:00:00: Balanced after 3 trials
   
    24:00:00: Balanced after 7 trials
   
   
  Hydraulic Status:
  -----------------------------------------------------------------------
     0:00:00: Balanced after 8 trials
     0:00:00: Tank TK0000004 is emptying at 30.00 m
     0:00:00: Tank TK0000003 is emptying at 30.00 m
     0:00:00: Tank TK0000002 is emptying at 30.00 m
     0:00:00: Tank TK0000001 is emptying at 30.00 m
     0:00:00: Pump PU0000013 closed
     0:00:00: Pump PU0000010 closed
     0:00:00: Pump PU0000009 closed
     0:00:00: Pump PU0000002 closed
     0:00:00: Pump PU0000001 closed
   
     1:00:00: Balanced after 2 trials
   
     2:00:00: Balanced after 2 trials
   
     3:00:00: Balanced after 2 trials
   
     4:00:00: Balanced after 3 trials
   
     5:00:00: Balanced after 2 trials
   
     6:00:00: Balanced after 4 trials
   
     7:00:00: Balanced after 3 trials
   
     8:00:00: Balanced after 2 trials
   
     9:00:00: Balanced after 3 trials
   
    10:00:00: Balanced after 2 trials
   
    11:00:00: Balanced after 2 trials
   
    12:00:00: Balanced after 2 trials
   
    13:00:00: Balanced after 2 trials
   
    14:00:00: Balanced after 3 trials
   
    15:00:00: Balanced after 2 trials
   
    16:00:00: Balanced after 3 trials
   
    17:00:00: Balanced after 2 trials
   
    18:00:00: Balanced after 2 trials
   
    19:00:00: Balanced after 2 trials
   
    20:00:00: Balanced after 2 trials
   
    21:00:00: Balanced after 3 trials
   
    22:00:00: Balanced after 2 trials
   
    23:00:00: Balanced after 3 trials
   
    24:00:00: Balanced after 7 trials
   
   
  Hydraulic Status:
  -----------------------------------------------------------------------
     0:00:00: Balanced after 6 trials
     0:00:00: Tank TK0000004 is emptying at 30.00 m
     0:00:00: Tank TK0000003 is emptying at 30.00 m
     0:00:00: Tank TK0000002 is emptying at 30.00 m
     0:00:00: Tank TK0000001 is emptying at 30.00 m
     0:00:00: Pump PU0000013 closed
     0:00:00: Pump PU0000012 closed
     0:00:00: Pump PU0000009 closed
     0:00:00: Pump PU0000006 closed
     0:00:00: Pump PU0000002 closed
     0:00:00: Pump PU0000001 closed
   
     1:00:00: Balanced after 2 trials
   
     2:00:00: Balanced after 2 trials
   
     3:00:00: Balanced after 2 trials
   
     4:00:00: Balanced after 3 trials
   
     5:00:00: Balanced after 2 trials
   
     6:00:00: Balanced after 4 trials
   
     7:00:00: Balanced after 3 trials
   
     8:00:00: Balanced after 2 trials
   
     9:00:00: Balanced after 3 trials
   
    10:00:00: Balanced after 2 trials
   
    11:00:00: Balanced after 2 trials
   
    12:00:00: Balanced after 2 trials
   
    13:00:00: Balanced after 2 trials
   
    14:00:00: Balanced after 3 trials
   
    15:00:00: Balanced after 2 trials
   
    16:00:00: Balanced after 3 trials
   
    17:00:00: Balanced after 2 trials
   
    18:00:00: Balanced after 2 trials
   
    19:00:00: Balanced after 2 trials
   
    20:00:00: Balanced after 2 trials
   
    21:00:00: Balanced after 3 trials
   
    22:00:00: Balanced after 2 trials
   
    23:00:00: Balanced after 3 trials
   
    24:00:00: Balanced after 7 trials
   
   
  Hydraulic Status:
  -----------------------------------------------------------------------
     0:00:00: Balanced after 5 trials
     0:00:00: Tank TK0000004 is closed at 30.00 m
     0:00:00: Tank TK0000003 is closed at 30.00 m
     0:00:00: Tank TK0000002 is emptying at 30.00 m
     0:00:00: Tank TK0000001 is emptying at 30.00 m
     0:00:00: Pump PU0000013 closed
     0:00:00: Pump PU0000011 closed
     0:00:00: Pump PU0000009 closed
     0:00:00: Pump PU0000008 closed
     0:00:00: Pump PU0000006 closed
     0:00:00: Pump PU0000005 closed
     0:00:00: Pump PU0000004 closed
     0:00:00: Pump PU0000003 closed
     0:00:00: Pump PU0000002 closed
     0:00:00: Pump PU0000001 closed
   
     1:00:00: Balanced after 2 trials
   
     2:00:00: Balanced after 2 trials
   
     3:00:00: Balanced after 2 trials
   
     4:00:00: Balanced after 3 trials
   
     5:00:00: Balanced after 2 trials
   
     6:00:00: Balanced after 3 trials
   
     7:00:00: Balanced after 3 trials
   
     8:00:00: Balanced after 1 trials
   
     9:00:00: Balanced after 2 trials
   
    10:00:00: Balanced after 1 trials
   
    11:00:00: Balanced after 2 trials
   
    12:00:00: Balanced after 2 trials
   
    13:00:00: Balanced after 1 trials
   
    14:00:00: Balanced after 3 trials
   
    15:00:00: Balanced after 2 trials
   
    16:00:00: Balanced after 3 trials
   
    17:00:00: Balanced after 2 trials
   
    18:00:00: Balanced after 2 trials
   
    19:00:00: Balanced after 1 trials
   
    20:00:00: Balanced after 1 trials
   
    21:00:00: Balanced after 3 trials
   
    22:00:00: Balanced after 1 trials
   
    23:00:00: Balanced after 3 trials
   
    24:00:00: Balanced after 4 trials
   
   
  Hydraulic Status:
  -----------------------------------------------------------------------
     0:00:00: Balanced after 9 trials
     0:00:00: Tank TK0000004 is emptying at 30.00 m
     0:00:00: Tank TK0000003 is emptying at 30.00 m
     0:00:00: Tank TK0000002 is emptying at 30.00 m
     0:00:00: Tank TK0000001 is emptying at 30.00 m
     0:00:00: Pump PU0000013 closed
     0:00:00: Pump PU0000012 closed
     0:00:00: Pump PU0000011 closed
     0:00:00: Pump PU0000008 closed
     0:00:00: Pump PU0000007 closed
     0:00:00: Pump PU0000004 closed
     0:00:00: Pump PU0000003 closed
   
     1:00:00: Balanced after 2 trials
   
     2:00:00: Balanced after 2 trials
   
     3:00:00: Balanced after 2 trials
   
     4:00:00: Balanced after 3 trials
   
     5:00:00: Balanced after 3 trials
   
     6:00:00: Balanced after 3 trials
   
     7:00:00: Balanced after 3 trials
   
     8:00:00: Balanced after 1 trials
   
     9:00:00: Balanced after 3 trials
   
    10:00:00: Balanced after 2 trials
   
    11:00:00: Balanced after 2 trials
   
    12:00:00: Balanced after 2 trials
   
    13:00:00: Balanced after 2 trials
   
    14:00:00: Balanced after 3 trials
   
    15:00:00: Balanced after 2 trials
   
    16:00:00: Balanced after 3 trials
   
    17:00:00: Balanced after 2 trials
   
    18:00:00: Balanced after 2 trials
   
    19:00:00: Balanced after 1 trials
   
    20:00:00: Balanced after 1 trials
   
    21:00:00: Balanced after 3 trials
   
    22:00:00: Balanced after 2 trials
   
    23:00:00: Balanced after 3 trials
   
    24:00:00: Balanced after 4 trials
   
   
  Hydraulic Status:
  -----------------------------------------------------------------------
     0:00:00: Balanced after 9 trials
     0:00:00: Tank TK0000004 is emptying at 30.00 m
     0:00:00: Tank TK0000003 is emptying at 30.00 m
     0:00:00: Tank TK0000002 is emptying at 30.00 m
     0:00:00: Tank TK0000001 is emptying at 30.00 m
     0:00:00: Pump PU0000009 closed
     0:00:00: Pump PU0000006 closed
     0:00:00: Pump PU0000003 closed
     0:00:00: Pump PU0000002 closed
   
     1:00:00: Balanced after 2 trials
   
     2:00:00: Balanced after 2 trials
   
     3:00:00: Balanced after 2 trials
   
     4:00:00: Balanced after 3 trials
   
     5:00:00: Balanced after 2 trials
   
     6:00:00: Balanced after 3 trials
   
     7:00:00: Balanced after 3 trials
   
     8:00:00: Balanced after 2 trials
   
     9:00:00: Balanced after 3 trials
   
    10:00:00: Balanced after 2 trials
   
    11:00:00: Balanced after 2 trials
   
    12:00:00: Balanced after 2 trials
   
    13:00:00: Balanced after 2 trials
   
    14:00:00: Balanced after 3 trials
   
    15:00:00: Balanced after 2 trials
   
    16:00:00: Balanced after 3 trials
   
    17:00:00: Balanced after 2 trials
   
    18:00:00: Balanced after 2 trials
   
    19:00:00: Balanced after 2 trials
   
    20:00:00: Balanced after 2 trials
   
    21:00:00: Balanced after 3 trials
   
    22:00:00: Balanced after 2 trials
   
    23:00:00: Balanced after 3 trials
   
    24:00:00: Balanced after 7 trials
   
   
  Hydraulic Status:
  -----------------------------------------------------------------------
     0:00:00: Balanced after 9 trials
     0:00:00: Tank TK0000004 is emptying at 30.00 m
     0:00:00: Tank TK0000003 is emptying at 30.00 m
     0:00:00: Tank TK0000002 is emptying at 30.00 m
     0:00:00: Tank TK0000001 is closed at 30.00 m
     0:00:00: Pump PU0000010 closed
     0:00:00: Pump PU0000009 closed
     0:00:00: Pump PU0000008 closed
     0:00:00: Pump PU0000007 closed
     0:00:00: Pump PU0000006 closed
     0:00:00: Pump PU0000001 closed
   
     1:00:00: Balanced after 2 trials
   
     2:00:00: Balanced after 2 trials
   
     3:00:00: Balanced after 2 trials
   
     4:00:00: Balanced after 3 trials
   
     5:00:00: Balanced after 2 trials
   
     6:00:00: Balanced after 3 trials
   
     7:00:00: Balanced after 3 trials
   
     8:00:00: Balanced after 1 trials
   
     9:00:00: Balanced after 3 trials
   
    10:00:00: Balanced after 2 trials
   
    11:00:00: Balanced after 2 trials
   
    12:00:00: Balanced after 2 trials
   
    13:00:00: Balanced after 2 trials
   
    14:00:00: Balanced after 3 trials
   
    15:00:00: Balanced after 2 trials
   
    16:00:00: Balanced after 3 trials
   
    17:00:00: Balanced after 2 trials
   
    18:00:00: Balanced after 2 trials
   
    19:00:00: Balanced after 1 trials
   
    20:00:00: Balanced after 1 trials
   
    21:00:00: Balanced after 3 trials
   
    22:00:00: Balanced after 2 trials
   
    23:00:00: Balanced after 3 trials
   
    24:00:00: Balanced after 4 trials
   
   
  Hydraulic Status:
  -----------------------------------------------------------------------
     0:00:00: Balanced after 9 trials
     0:00:00: Tank TK0000004 is emptying at 30.00 m
     0:00:00: Tank TK0000003 is emptying at 30.00 m
     0:00:00: Tank TK0000002 is emptying at 30.00 m
     0:00:00: Tank TK0000001 is emptying at 30.00 m
     0:00:00: Pump PU0000011 closed
     0:00:00: Pump PU0000008 closed
     0:00:00: Pump PU0000003 closed
     0:00:00: Pump PU0000001 closed
   
     1:00:00: Balanced after 2 trials
   
     2:00:00: Balanced after 2 trials
   
     3:00:00: Balanced after 2 trials
   
     4:00:00: Balanced after 3 trials
   
     5:00:00: Balanced after 2 trials
   
     6:00:00: Balanced after 3 trials
   
     7:00:00: Balanced after 3 trials
   
     8:00:00: Balanced after 2 trials
   
     9:00:00: Balanced after 3 trials
   
    10:00:00: Balanced after 2 trials
   
    11:00:00: Balanced after 2 trials
   
    12:00:00: Balanced after 2 trials
   
    13:00:00: Balanced after 2 trials
   
    14:00:00: Balanced after 3 trials
   
    15:00:00: Balanced after 2 trials
   
    16:00:00: Balanced after 3 trials
   
    17:00:00: Balanced after 2 trials
   
    18:00:00: Balanced after 2 trials
   
    19:00:00: Balanced after 2 trials
   
    20:00:00: Balanced after 2 trials
   
    21:00:00: Balanced after 3 trials
   
    22:00:00: Balanced after 2 trials
   
    23:00:00: Balanced after 3 trials
   
    24:00:00: Balanced after 7 trials
   
   
  Hydraulic Status:
  -----------------------------------------------------------------------
     0:00:00: Balanced after 4 trials
     0:00:00: Tank TK0000004 is emptying at 30.00 m
     0:00:00: Tank TK0000003 is emptying at 30.00 m
     0:00:00: Tank TK0000002 is emptying at 30.00 m
     0:00:00: Tank TK0000001 is emptying at 30.00 m
     0:00:00: Pump PU0000013 closed
     0:00:00: Pump PU0000012 closed
     0:00:00: Pump PU0000011 closed
     0:00:00: Pump PU0000009 closed
     0:00:00: Pump PU0000008 closed
     0:00:00: Pump PU0000006 closed
     0:00:00: Pump PU0000003 closed
     0:00:00: Pump PU0000001 closed
   
     1:00:00: Balanced after 2 trials
   
     2:00:00: Balanced after 2 trials
   
     3:00:00: Balanced after 2 trials
   
     4:00:00: Balanced after 3 trials
   
     5:00:00: Balanced after 3 trials
   
     6:00:00: Balanced after 3 trials
   
     7:00:00: Balanced after 3 trials
   
     8:00:00: Balanced after 1 trials
   
     9:00:00: Balanced after 3 trials
   
    10:00:00: Balanced after 2 trials
   
    11:00:00: Balanced after 2 trials
   
    12:00:00: Balanced after 2 trials
   
    13:00:00: Balanced after 2 trials
   
    14:00:00: Balanced after 3 trials
   
    15:00:00: Balanced after 2 trials
   
    16:00:00: Balanced after 3 trials
   
    17:00:00: Balanced after 2 trials
   
    18:00:00: Balanced after 2 trials
   
    19:00:00: Balanced after 1 trials
   
    20:00:00: Balanced after 1 trials
   
    21:00:00: Balanced after 3 trials
   
    22:00:00: Balanced after 2 trials
   
    23:00:00: Balanced after 3 trials
   
    24:00:00: Balanced after 4 trials
   
   
  Hydraulic Status:
  -----------------------------------------------------------------------
     0:00:00: Balanced after 7 trials
     0:00:00: Tank TK0000004 is emptying at 30.00 m
     0:00:00: Tank TK0000003 is emptying at 30.00 m
     0:00:00: Tank TK0000002 is closed at 30.00 m
     0:00:00: Tank TK0000001 is emptying at 30.00 m
     0:00:00: Pump PU0000012 closed
     0:00:00: Pump PU0000011 closed
     0:00:00: Pump PU0000010 closed
     0:00:00: Pump PU0000008 closed
     0:00:00: Pump PU0000007 closed
     0:00:00: Pump PU0000003 closed
     0:00:00: Pump PU0000002 closed
     0:00:00: Pump PU0000001 closed
   
     1:00:00: Balanced after 2 trials
   
     2:00:00: Balanced after 2 trials
   
     3:00:00: Balanced after 2 trials
   
     4:00:00: Balanced after 3 trials
   
     5:00:00: Balanced after 2 trials
   
     6:00:00: Balanced after 3 trials
   
     7:00:00: Balanced after 3 trials
   
  WARNING: Negative pressures at 7:00:00 hrs.
  
     8:00:00: Balanced after 1 trials
   
  WARNING: Negative pressures at 8:00:00 hrs.
  
     9:00:00: Balanced after 2 trials
   
    10:00:00: Balanced after 1 trials
   
    11:00:00: Balanced after 2 trials
   
  WARNING: Negative pressures at 11:00:00 hrs.
  
    12:00:00: Balanced after 2 trials
   
    13:00:00: Balanced after 1 trials
   
    14:00:00: Balanced after 3 trials
   
    15:00:00: Balanced after 1 trials
   
    16:00:00: Balanced after 3 trials
   
    17:00:00: Balanced after 2 trials
   
  WARNING: Negative pressures at 17:00:00 hrs.
  
    18:00:00: Balanced after 2 trials
   
  WARNING: Negative pressures at 18:00:00 hrs.
  
    19:00:00: Balanced after 1 trials
   
  WARNING: Negative pressures at 19:00:00 hrs.
  
    20:00:00: Balanced after 1 trials
   
  WARNING: Negative pressures at 20:00:00 hrs.
  
    21:00:00: Balanced after 3 trials
   
    22:00:00: Balanced after 1 trials
   
    23:00:00: Balanced after 2 trials
   
    24:00:00: Balanced after 5 trials
   
   
  Hydraulic Status:
  -----------------------------------------------------------------------
     0:00:00: Balanced after 4 trials
     0:00:00: Tank TK0000004 is closed at 30.00 m
     0:00:00: Tank TK0000003 is emptying at 30.00 m
     0:00:00: Tank TK0000002 is closed at 30.00 m
     0:00:00: Tank TK0000001 is emptying at 30.00 m
     0:00:00: Pump PU0000013 closed
     0:00:00: Pump PU0000012 closed
     0:00:00: Pump PU0000011 closed
     0:00:00: Pump PU0000010 closed
     0:00:00: Pump PU0000009 closed
     0:00:00: Pump PU0000007 closed
     0:00:00: Pump PU0000005 closed
     0:00:00: Pump PU0000003 closed
     0:00:00: Pump PU0000002 closed
     0:00:00: Pump PU0000001 closed
   
     1:00:00: Balanced after 1 trials
   
     2:00:00: Balanced after 1 trials
   
     3:00:00: Balanced after 1 trials
   
     4:00:00: Balanced after 2 trials
   
     5:00:00: Balanced after 2 trials
   
  WARNING: Negative pressures at 5:00:00 hrs.
  
     6:00:00: Balanced after 3 trials
   
     7:00:00: Balanced after 3 trials
   
  WARNING: Negative pressures at 7:00:00 hrs.
  
     8:00:00: Balanced after 1 trials
   
  WARNING: Negative pressures at 8:00:00 hrs.
  
     9:00:00: Balanced after 2 trials
   
  WARNING: Negative pressures at 9:00:00 hrs.
  
    10:00:00: Balanced after 1 trials
   
  WARNING: Negative pressures at 10:00:00 hrs.
  
    11:00:00: Balanced after 2 trials
   
  WARNING: Negative pressures at 11:00:00 hrs.
  
    12:00:00: Balanced after 2 trials
   
  WARNING: Negative pressures at 12:00:00 hrs.
  
    13:00:00: Balanced after 1 trials
   
  WARNING: Negative pressures at 13:00:00 hrs.
  
    14:00:00: Balanced after 2 trials
   
    15:00:00: Balanced after 1 trials
   
    16:00:00: Balanced after 2 trials
   
  WARNING: Negative pressures at 16:00:00 hrs.
  
    17:00:00: Balanced after 2 trials
   
  WARNING: Negative pressures at 17:00:00 hrs.
  
    18:00:00: Balanced after 2 trials
   
  WARNING: Negative pressures at 18:00:00 hrs.
  
    19:00:00: Balanced after 1 trials
   
  WARNING: Negative pressures at 19:00:00 hrs.
  
    20:00:00: Balanced after 1 trials
   
  WARNING: Negative pressures at 20:00:00 hrs.
  
    21:00:00: Balanced after 2 trials
   
  WARNING: Negative pressures at 21:00:00 hrs.
  
    22:00:00: Balanced after 1 trials
   
  WARNING: Negative pressures at 22:00:00 hrs.
  
    23:00:00: Balanced after 2 trials
   
  WARNING: Negative pressures at 23:00:00 hrs.
  
    24:00:00: Balanced after 3 trials
   
   
  Hydraulic Status:
  -----------------------------------------------------------------------
     0:00:00: Balanced after 7 trials
     0:00:00: Tank TK0000004 is emptying at 30.00 m
     0:00:00: Tank TK0000003 is emptying at 30.00 m
     0:00:00: Tank TK0000002 is closed at 30.00 m
     0:00:00: Tank TK0000001 is emptying at 30.00 m
     0:00:00: Pump PU0000012 closed
     0:00:00: Pump PU0000011 closed
     0:00:00: Pump PU0000010 closed
     0:00:00: Pump PU0000009 closed
     0:00:00: Pump PU0000006 closed
     0:00:00: Pump PU0000002 closed
     0:00:00: Pump PU0000001 closed
   
     1:00:00: Balanced after 2 trials
   
     2:00:00: Balanced after 2 trials
   
     3:00:00: Balanced after 2 trials
   
     4:00:00: Balanced after 3 trials
   
     5:00:00: Balanced after 2 trials
   
     6:00:00: Balanced after 3 trials
   
     7:00:00: Balanced after 3 trials
   
  WARNING: Negative pressures at 7:00:00 hrs.
  
     8:00:00: Balanced after 1 trials
   
  WARNING: Negative pressures at 8:00:00 hrs.
  
     9:00:00: Balanced after 2 trials
   
    10:00:00: Balanced after 1 trials
   
    11:00:00: Balanced after 2 trials
   
    12:00:00: Balanced after 2 trials
   
    13:00:00: Balanced after 1 trials
   
    14:00:00: Balanced after 3 trials
   
    15:00:00: Balanced after 2 trials
   
    16:00:00: Balanced after 3 trials
   
    17:00:00: Balanced after 2 trials
   
    18:00:00: Balanced after 2 trials
   
  WARNING: Negative pressures at 18:00:00 hrs.
  
    19:00:00: Balanced after 1 trials
   
  WARNING: Negative pressures at 19:00:00 hrs.
  
    20:00:00: Balanced after 1 trials
   
  WARNING: Negative pressures at 20:00:00 hrs.
  
    21:00:00: Balanced after 3 trials
   
    22:00:00: Balanced after 1 trials
   
    23:00:00: Balanced after 2 trials
   
    24:00:00: Balanced after 5 trials
   
   
  Hydraulic Status:
  -----------------------------------------------------------------------
     0:00:00: Balanced after 8 trials
     0:00:00: Tank TK0000004 is emptying at 30.00 m
     0:00:00: Tank TK0000003 is emptying at 30.00 m
     0:00:00: Tank TK0000002 is emptying at 30.00 m
     0:00:00: Tank TK0000001 is emptying at 30.00 m
     0:00:00: Pump PU0000013 closed
     0:00:00: Pump PU0000012 closed
     0:00:00: Pump PU0000011 closed
     0:00:00: Pump PU0000007 closed
     0:00:00: Pump PU0000004 closed
     0:00:00: Pump PU0000002 closed
   
     1:00:00: Balanced after 2 trials
   
     2:00:00: Balanced after 2 trials
   
     3:00:00: Balanced after 2 trials
   
     4:00:00: Balanced after 3 trials
   
     5:00:00: Balanced after 3 trials
   
     6:00:00: Balanced after 3 trials
   
     7:00:00: Balanced after 3 trials
   
     8:00:00: Balanced after 1 trials
   
     9:00:00: Balanced after 3 trials
   
    10:00:00: Balanced after 2 trials
   
    11:00:00: Balanced after 2 trials
   
    12:00:00: Balanced after 2 trials
   
    13:00:00: Balanced after 2 trials
   
    14:00:00: Balanced after 3 trials
   
    15:00:00: Balanced after 2 trials
   
    16:00:00: Balanced after 3 trials
   
    17:00:00: Balanced after 2 trials
   
    18:00:00: Balanced after 2 trials
   
    19:00:00: Balanced after 1 trials
   
    20:00:00: Balanced after 1 trials
   
    21:00:00: Balanced after 3 trials
   
    22:00:00: Balanced after 2 trials
   
    23:00:00: Balanced after 3 trials
   
    24:00:00: Balanced after 4 trials
   
   
  Hydraulic Status:
  -----------------------------------------------------------------------
     0:00:00: Balanced after 8 trials
     0:00:00: Tank TK0000004 is closed at 30.00 m
     0:00:00: Tank TK0000003 is emptying at 30.00 m
     0:00:00: Tank TK0000002 is emptying at 30.00 m
     0:00:00: Tank TK0000001 is emptying at 30.00 m
     0:00:00: Pump PU0000013 closed
     0:00:00: Pump PU0000012 closed
     0:00:00: Pump PU0000009 closed
     0:00:00: Pump PU0000008 closed
     0:00:00: Pump PU0000006 closed
     0:00:00: Pump PU0000003 closed
     0:00:00: Pump PU0000002 closed
     0:00:00: Pump PU0000001 closed
   
     1:00:00: Balanced after 2 trials
   
     2:00:00: Balanced after 2 trials
   
     3:00:00: Balanced after 2 trials
   
     4:00:00: Balanced after 3 trials
   
     5:00:00: Balanced after 2 trials
   
     6:00:00: Balanced after 3 trials
   
     7:00:00: Balanced after 3 trials
   
     8:00:00: Balanced after 1 trials
   
     9:00:00: Balanced after 3 trials
   
    10:00:00: Balanced after 2 trials
   
    11:00:00: Balanced after 2 trials
   
    12:00:00: Balanced after 2 trials
   
    13:00:00: Balanced after 2 trials
   
    14:00:00: Balanced after 3 trials
   
    15:00:00: Balanced after 2 trials
   
    16:00:00: Balanced after 3 trials
   
    17:00:00: Balanced after 2 trials
   
    18:00:00: Balanced after 2 trials
   
    19:00:00: Balanced after 1 trials
   
    20:00:00: Balanced after 1 trials
   
    21:00:00: Balanced after 3 trials
   
    22:00:00: Balanced after 2 trials
   
    23:00:00: Balanced after 3 trials
   
    24:00:00: Balanced after 4 trials
   
   
  Hydraulic Status:
  -----------------------------------------------------------------------
     0:00:00: Balanced after 9 trials
     0:00:00: Tank TK0000004 is emptying at 30.00 m
     0:00:00: Tank TK0000003 is emptying at 30.00 m
     0:00:00: Tank TK0000002 is emptying at 30.00 m
     0:00:00: Tank TK0000001 is emptying at 30.00 m
     0:00:00: Pump PU0000012 closed
     0:00:00: Pump PU0000009 closed
     0:00:00: Pump PU0000008 closed
     0:00:00: Pump PU0000005 closed
     0:00:00: Pump PU0000003 closed
     0:00:00: Pump PU0000001 closed
   
     1:00:00: Balanced after 2 trials
   
     2:00:00: Balanced after 2 trials
   
     3:00:00: Balanced after 2 trials
   
     4:00:00: Balanced after 3 trials
   
     5:00:00: Balanced after 2 trials
   
     6:00:00: Balanced after 3 trials
   
     7:00:00: Balanced after 3 trials
   
     8:00:00: Balanced after 2 trials
   
     9:00:00: Balanced after 3 trials
   
    10:00:00: Balanced after 2 trials
   
    11:00:00: Balanced after 2 trials
   
    12:00:00: Balanced after 2 trials
   
    13:00:00: Balanced after 2 trials
   
    14:00:00: Balanced after 3 trials
   
    15:00:00: Balanced after 2 trials
   
    16:00:00: Balanced after 3 trials
   
    17:00:00: Balanced after 2 trials
   
    18:00:00: Balanced after 2 trials
   
    19:00:00: Balanced after 2 trials
   
    20:00:00: Balanced after 2 trials
   
    21:00:00: Balanced after 3 trials
   
    22:00:00: Balanced after 2 trials
   
    23:00:00: Balanced after 3 trials
   
    24:00:00: Balanced after 7 trials
   
   
  Hydraulic Status:
  -----------------------------------------------------------------------
     0:00:00: Balanced after 7 trials
     0:00:00: Tank TK0000004 is closed at 30.00 m
     0:00:00: Tank TK0000003 is closed at 30.00 m
     0:00:00: Tank TK0000002 is emptying at 30.00 m
     0:00:00: Tank TK0000001 is emptying at 30.00 m
     0:00:00: Pump PU0000013 closed
     0:00:00: Pump PU0000012 closed
     0:00:00: Pump PU0000009 closed
     0:00:00: Pump PU0000006 closed
     0:00:00: Pump PU0000005 closed
     0:00:00: Pump PU0000004 closed
     0:00:00: Pump PU0000003 closed
     0:00:00: Pump PU0000002 closed
     0:00:00: Pump PU0000001 closed
   
     1:00:00: Balanced after 2 trials
   
     2:00:00: Balanced after 2 trials
   
     3:00:00: Balanced after 2 trials
   
     4:00:00: Balanced after 3 trials
   
     5:00:00: Balanced after 2 trials
   
     6:00:00: Balanced after 3 trials
   
     7:00:00: Balanced after 3 trials
   
     8:00:00: Balanced after 1 trials
   
     9:00:00: Balanced after 2 trials
   
    10:00:00: Balanced after 1 trials
   
    11:00:00: Balanced after 2 trials
   
    12:00:00: Balanced after 2 trials
   
    13:00:00: Balanced after 1 trials
   
    14:00:00: Balanced after 3 trials
   
    15:00:00: Balanced after 2 trials
   
    16:00:00: Balanced after 3 trials
   
    17:00:00: Balanced after 2 trials
   
    18:00:00: Balanced after 2 trials
   
    19:00:00: Balanced after 1 trials
   
    20:00:00: Balanced after 1 trials
   
    21:00:00: Balanced after 3 trials
   
    22:00:00: Balanced after 1 trials
   
    23:00:00: Balanced after 3 trials
   
    24:00:00: Balanced after 4 trials
   
   
  Hydraulic Status:
  -----------------------------------------------------------------------
     0:00:00: Balanced after 9 trials
     0:00:00: Tank TK0000004 is emptying at 30.00 m
     0:00:00: Tank TK0000003 is emptying at 30.00 m
     0:00:00: Tank TK0000002 is emptying at 30.00 m
     0:00:00: Tank TK0000001 is emptying at 30.00 m
     0:00:00: Pump PU0000013 closed
     0:00:00: Pump PU0000011 closed
     0:00:00: Pump PU0000010 closed
     0:00:00: Pump PU0000009 closed
     0:00:00: Pump PU0000008 closed
     0:00:00: Pump PU0000005 closed
     0:00:00: Pump PU0000002 closed
     0:00:00: Pump PU0000001 closed
   
     1:00:00: Balanced after 2 trials
   
     2:00:00: Balanced after 2 trials
   
     3:00:00: Balanced after 2 trials
   
     4:00:00: Balanced after 3 trials
   
     5:00:00: Balanced after 3 trials
   
     6:00:00: Balanced after 3 trials
   
     7:00:00: Balanced after 3 trials
   
     8:00:00: Balanced after 1 trials
   
     9:00:00: Balanced after 3 trials
   
    10:00:00: Balanced after 2 trials
   
    11:00:00: Balanced after 2 trials
   
    12:00:00: Balanced after 2 trials
   
    13:00:00: Balanced after 2 trials
   
    14:00:00: Balanced after 3 trials
   
    15:00:00: Balanced after 2 trials
   
    16:00:00: Balanced after 3 trials
   
    17:00:00: Balanced after 2 trials
   
    18:00:00: Balanced after 2 trials
   
    19:00:00: Balanced after 1 trials
   
    20:00:00: Balanced after 1 trials
   
    21:00:00: Balanced after 3 trials
   
    22:00:00: Balanced after 2 trials
   
    23:00:00: Balanced after 3 trials
   
    24:00:00: Balanced after 4 trials
   
   
  Hydraulic Status:
  -----------------------------------------------------------------------
     0:00:00: Balanced after 7 trials
     0:00:00: Tank TK0000004 is emptying at 30.00 m
     0:00:00: Tank TK0000003 is closed at 30.00 m
     0:00:00: Tank TK0000002 is emptying at 30.00 m
     0:00:00: Tank TK0000001 is emptying at 30.00 m
     0:00:00: Pump PU0000013 closed
     0:00:00: Pump PU0000012 closed
     0:00:00: Pump PU0000011 closed
     0:00:00: Pump PU0000008 closed
     0:00:00: Pump PU0000007 closed
     0:00:00: Pump PU0000006 closed
     0:00:00: Pump PU0000005 closed
     0:00:00: Pump PU0000004 closed
     0:00:00: Pump PU0000002 closed
     0:00:00: Pump PU0000001 closed
   
     1:00:00: Balanced after 2 trials
   
     2:00:00: Balanced after 2 trials
   
     3:00:00: Balanced after 2 trials
   
     4:00:00: Balanced after 3 trials
   
     5:00:00: Balanced after 3 trials
   
     6:00:00: Balanced after 3 trials
   
     7:00:00: Balanced after 3 trials
   
     8:00:00: Balanced after 1 trials
   
     9:00:00: Balanced after 3 trials
   
    10:00:00: Balanced after 1 trials
   
    11:00:00: Balanced after 2 trials
   
    12:00:00: Balanced after 2 trials
   
    13:00:00: Balanced after 1 trials
   
    14:00:00: Balanced after 3 trials
   
    15:00:00: Balanced after 2 trials
   
    16:00:00: Balanced after 3 trials
   
    17:00:00: Balanced after 2 trials
   
    18:00:00: Balanced after 2 trials
   
    19:00:00: Balanced after 1 trials
   
    20:00:00: Balanced after 1 trials
   
    21:00:00: Balanced after 3 trials
   
    22:00:00: Balanced after 1 trials
   
    23:00:00: Balanced after 3 trials
   
    24:00:00: Balanced after 4 trials
   
   
  Hydraulic Status:
  -----------------------------------------------------------------------
     0:00:00: Balanced after 9 trials
     0:00:00: Tank TK0000004 is emptying at 30.00 m
     0:00:00: Tank TK0000003 is emptying at 30.00 m
     0:00:00: Tank TK0000002 is closed at 30.00 m
     0:00:00: Tank TK0000001 is emptying at 30.00 m
     0:00:00: Pump PU0000013 closed
     0:00:00: Pump PU0000012 closed
     0:00:00: Pump PU0000011 closed
     0:00:00: Pump PU0000010 closed
     0:00:00: Pump PU0000009 closed
     0:00:00: Pump PU0000002 closed
     0:00:00: Pump PU0000001 closed
   
     1:00:00: Balanced after 2 trials
   
     2:00:00: Balanced after 2 trials
   
     3:00:00: Balanced after 2 trials
   
     4:00:00: Balanced after 3 trials
   
     5:00:00: Balanced after 3 trials
   
     6:00:00: Balanced after 3 trials
   
     7:00:00: Balanced after 3 trials
   
  WARNING: Negative pressures at 7:00:00 hrs.
  
     8:00:00: Balanced after 1 trials
   
  WARNING: Negative pressures at 8:00:00 hrs.
  
     9:00:00: Balanced after 3 trials
   
    10:00:00: Balanced after 1 trials
   
    11:00:00: Balanced after 2 trials
   
  WARNING: Negative pressures at 11:00:00 hrs.
  
    12:00:00: Balanced after 2 trials
   
    13:00:00: Balanced after 1 trials
   
    14:00:00: Balanced after 3 trials
   
    15:00:00: Balanced after 1 trials
   
    16:00:00: Balanced after 3 trials
   
    17:00:00: Balanced after 2 trials
   
  WARNING: Negative pressures at 17:00:00 hrs.
  
    18:00:00: Balanced after 2 trials
   
  WARNING: Negative pressures at 18:00:00 hrs.
  
    19:00:00: Balanced after 1 trials
   
  WARNING: Negative pressures at 19:00:00 hrs.
  
    20:00:00: Balanced after 1 trials
   
  WARNING: Negative pressures at 20:00:00 hrs.
  
    21:00:00: Balanced after 3 trials
   
    22:00:00: Balanced after 1 trials
   
    23:00:00: Balanced after 2 trials
   
    24:00:00: Balanced after 4 trials
   
   
  Hydraulic Status:
  -----------------------------------------------------------------------
     0:00:00: Balanced after 5 trials
     0:00:00: Tank TK0000004 is emptying at 30.00 m
     0:00:00: Tank TK0000003 is emptying at 30.00 m
     0:00:00: Tank TK0000002 is closed at 30.00 m
     0:00:00: Tank TK0000001 is closed at 30.00 m
     0:00:00: Pump PU0000012 closed
     0:00:00: Pump PU0000011 closed
     0:00:00: Pump PU0000010 closed
     0:00:00: Pump PU0000009 closed
     0:00:00: Pump PU0000008 closed
     0:00:00: Pump PU0000007 closed
     0:00:00: Pump PU0000003 closed
     0:00:00: Pump PU0000002 closed
     0:00:00: Pump PU0000001 closed
   
     1:00:00: Balanced after 2 trials
   
     2:00:00: Balanced after 2 trials
   
     3:00:00: Balanced after 2 trials
   
     4:00:00: Balanced after 3 trials
   
     5:00:00: Balanced after 2 trials
   
     6:00:00: Balanced after 3 trials
   
     7:00:00: Balanced after 3 trials
   
  WARNING: Negative pressures at 7:00:00 hrs.
  WARNING: Pump PU0000013 open but exceeds maximum flow at 7:00:00 hrs.
  
     8:00:00: Balanced after 1 trials
   
  WARNING: Negative pressures at 8:00:00 hrs.
  WARNING: Pump PU0000013 open but exceeds maximum flow at 8:00:00 hrs.
  
     9:00:00: Balanced after 2 trials
   
  WARNING: Negative pressures at 9:00:00 hrs.
  
    10:00:00: Balanced after 1 trials
   
  WARNING: Negative pressures at 10:00:00 hrs.
  
    11:00:00: Balanced after 2 trials
   
  WARNING: Negative pressures at 11:00:00 hrs.
  
    12:00:00: Balanced after 2 trials
   
  WARNING: Negative pressures at 12:00:00 hrs.
  
    13:00:00: Balanced after 1 trials
   
  WARNING: Negative pressures at 13:00:00 hrs.
  
    14:00:00: Balanced after 3 trials
   
    15:00:00: Balanced after 1 trials
   
    16:00:00: Balanced after 3 trials
   
  WARNING: Negative pressures at 16:00:00 hrs.
  
    17:00:00: Balanced after 2 trials
   
  WARNING: Negative pressures at 17:00:00 hrs.
  
    18:00:00: Balanced after 2 trials
   
  WARNING: Negative pressures at 18:00:00 hrs.
  WARNING: Pump PU0000013 open but exceeds maximum flow at 18:00:00 hrs.
  
    19:00:00: Balanced after 1 trials
   
  WARNING: Negative pressures at 19:00:00 hrs.
  WARNING: Pump PU0000013 open but exceeds maximum flow at 19:00:00 hrs.
  
    20:00:00: Balanced after 1 trials
   
  WARNING: Negative pressures at 20:00:00 hrs.
  WARNING: Pump PU0000013 open but exceeds maximum flow at 20:00:00 hrs.
  
    21:00:00: Balanced after 2 trials
   
  WARNING: Negative pressures at 21:00:00 hrs.
  
    22:00:00: Balanced after 1 trials
   
  WARNING: Negative pressures at 22:00:00 hrs.
  
    23:00:00: Balanced after 2 trials
   
    24:00:00: Balanced after 4 trials
   
   
  Hydraulic Status:
  -----------------------------------------------------------------------
     0:00:00: Balanced after 9 trials
     0:00:00: Tank TK0000004 is emptying at 30.00 m
     0:00:00: Tank TK0000003 is emptying at 30.00 m
     0:00:00: Tank TK0000002 is emptying at 30.00 m
     0:00:00: Tank TK0000001 is emptying at 30.00 m
     0:00:00: Pump PU0000012 closed
     0:00:00: Pump PU0000010 closed
     0:00:00: Pump PU0000008 closed
     0:00:00: Pump PU0000003 closed
     0:00:00: Pump PU0000002 closed
     0:00:00: Pump PU0000001 closed
   
     1:00:00: Balanced after 2 trials
   
     2:00:00: Balanced after 2 trials
   
     3:00:00: Balanced after 2 trials
   
     4:00:00: Balanced after 3 trials
   
     5:00:00: Balanced after 3 trials
   
     6:00:00: Balanced after 4 trials
   
     7:00:00: Balanced after 3 trials
   
     8:00:00: Balanced after 1 trials
   
     9:00:00: Balanced after 3 trials
   
    10:00:00: Balanced after 2 trials
   
    11:00:00: Balanced after 2 trials
   
    12:00:00: Balanced after 2 trials
   
    13:00:00: Balanced after 2 trials
   
    14:00:00: Balanced after 3 trials
   
    15:00:00: Balanced after 2 trials
   
    16:00:00: Balanced after 3 trials
   
    17:00:00: Balanced after 2 trials
   
    18:00:00: Balanced after 2 trials
   
    19:00:00: Balanced after 1 trials
   
    20:00:00: Balanced after 1 trials
   
    21:00:00: Balanced after 3 trials
   
    22:00:00: Balanced after 2 trials
   
    23:00:00: Balanced after 3 trials
   
    24:00:00: Balanced after 4 trials
   
   
  Hydraulic Status:
  -----------------------------------------------------------------------
     0:00:00: Balanced after 6 trials
     0:00:00: Tank TK0000004 is closed at 30.00 m
     0:00:00: Tank TK0000003 is emptying at 30.00 m
     0:00:00: Tank TK0000002 is emptying at 30.00 m
     0:00:00: Tank TK0000001 is emptying at 30.00 m
     0:00:00: Pump PU0000013 closed
     0:00:00: Pump PU0000012 closed
     0:00:00: Pump PU0000010 closed
     0:00:00: Pump PU0000009 closed
     0:00:00: Pump PU0000007 closed
     0:00:00: Pump PU0000003 closed
     0:00:00: Pump PU0000002 closed
     0:00:00: Pump PU0000001 closed
   
     1:00:00: Balanced after 2 trials
   
     2:00:00: Balanced after 2 trials
   
     3:00:00: Balanced after 2 trials
   
     4:00:00: Balanced after 3 trials
   
     5:00:00: Balanced after 3 trials
   
     6:00:00: Balanced after 3 trials
   
     7:00:00: Balanced after 3 trials
   
     8:00:00: Balanced after 1 trials
   
     9:00:00: Balanced after 3 trials
   
    10:00:00: Balanced after 1 trials
   
    11:00:00: Balanced after 2 trials
   
    12:00:00: Balanced after 2 trials
   
    13:00:00: Balanced after 1 trials
   
    14:00:00: Balanced after 3 trials
   
    15:00:00: Balanced after 2 trials
   
    16:00:00: Balanced after 3 trials
   
    17:00:00: Balanced after 2 trials
   
    18:00:00: Balanced after 2 trials
   
  WARNING: Negative pressures at 18:00:00 hrs.
  
    19:00:00: Balanced after 1 trials
   
  WARNING: Negative pressures at 19:00:00 hrs.
  
    20:00:00: Balanced after 1 trials
   
  WARNING: Negative pressures at 20:00:00 hrs.
  
    21:00:00: Balanced after 3 trials
   
    22:00:00: Balanced after 1 trials
   
    23:00:00: Balanced after 3 trials
   
    24:00:00: Balanced after 4 trials
   
   
  Hydraulic Status:
  -----------------------------------------------------------------------
     0:00:00: Balanced after 7 trials
     0:00:00: Tank TK0000004 is emptying at 30.00 m
     0:00:00: Tank TK0000003 is emptying at 30.00 m
     0:00:00: Tank TK0000002 is emptying at 30.00 m
     0:00:00: Tank TK0000001 is emptying at 30.00 m
     0:00:00: Pump PU0000013 closed
     0:00:00: Pump PU0000011 closed
     0:00:00: Pump PU0000008 closed
     0:00:00: Pump PU0000007 closed
     0:00:00: Pump PU0000006 closed
     0:00:00: Pump PU0000004 closed
     0:00:00: Pump PU0000003 closed
     0:00:00: Pump PU0000001 closed
   
     1:00:00: Balanced after 2 trials
   
     2:00:00: Balanced after 2 trials
   
     3:00:00: Balanced after 2 trials
   
     4:00:00: Balanced after 3 trials
   
     5:00:00: Balanced after 2 trials
   
     6:00:00: Balanced after 4 trials
   
     7:00:00: Balanced after 3 trials
   
     8:00:00: Balanced after 2 trials
   
     9:00:00: Balanced after 3 trials
   
    10:00:00: Balanced after 2 trials
   
    11:00:00: Balanced after 2 trials
   
    12:00:00: Balanced after 2 trials
   
    13:00:00: Balanced after 2 trials
   
    14:00:00: Balanced after 3 trials
   
    15:00:00: Balanced after 2 trials
   
    16:00:00: Balanced after 3 trials
   
    17:00:00: Balanced after 2 trials
   
    18:00:00: Balanced after 2 trials
   
    19:00:00: Balanced after 2 trials
   
    20:00:00: Balanced after 2 trials
   
    21:00:00: Balanced after 3 trials
   
    22:00:00: Balanced after 2 trials
   
    23:00:00: Balanced after 3 trials
   
    24:00:00: Balanced after 7 trials
   
   
  Hydraulic Status:
  -----------------------------------------------------------------------
     0:00:00: Balanced after 9 trials
     0:00:00: Tank TK0000004 is emptying at 30.00 m
     0:00:00: Tank TK0000003 is emptying at 30.00 m
     0:00:00: Tank TK0000002 is emptying at 30.00 m
     0:00:00: Tank TK0000001 is closed at 30.00 m
     0:00:00: Pump PU0000013 closed
     0:00:00: Pump PU0000011 closed
     0:00:00: Pump PU0000009 closed
     0:00:00: Pump PU0000008 closed
     0:00:00: Pump PU0000007 closed
     0:00:00: Pump PU0000001 closed
   
     1:00:00: Balanced after 2 trials
   
     2:00:00: Balanced after 2 trials
   
     3:00:00: Balanced after 2 trials
   
     4:00:00: Balanced after 3 trials
   
     5:00:00: Balanced after 2 trials
   
     6:00:00: Balanced after 3 trials
   
     7:00:00: Balanced after 3 trials
   
     8:00:00: Balanced after 1 trials
   
     9:00:00: Balanced after 3 trials
   
    10:00:00: Balanced after 2 trials
   
    11:00:00: Balanced after 2 trials
   
    12:00:00: Balanced after 2 trials
   
    13:00:00: Balanced after 2 trials
   
    14:00:00: Balanced after 3 trials
   
    15:00:00: Balanced after 2 trials
   
    16:00:00: Balanced after 3 trials
   
    17:00:00: Balanced after 2 trials
   
    18:00:00: Balanced after 2 trials
   
    19:00:00: Balanced after 1 trials
   
    20:00:00: Balanced after 1 trials
   
    21:00:00: Balanced after 3 trials
   
    22:00:00: Balanced after 2 trials
   
    23:00:00: Balanced after 3 trials
   
    24:00:00: Balanced after 4 trials
   
   
  Hydraulic Status:
  -----------------------------------------------------------------------
     0:00:00: Balanced after 9 trials
     0:00:00: Tank TK0000004 is emptying at 30.00 m
     0:00:00: Tank TK0000003 is emptying at 30.00 m
     0:00:00: Tank TK0000002 is closed at 30.00 m
     0:00:00: Tank TK0000001 is emptying at 30.00 m
     0:00:00: Pump PU0000012 closed
     0:00:00: Pump PU0000011 closed
     0:00:00: Pump PU0000010 closed
     0:00:00: Pump PU0000009 closed
     0:00:00: Pump PU0000004 closed
     0:00:00: Pump PU0000002 closed
     0:00:00: Pump PU0000001 closed
   
     1:00:00: Balanced after 2 trials
   
     2:00:00: Balanced after 2 trials
   
     3:00:00: Balanced after 2 trials
   
     4:00:00: Balanced after 3 trials
   
     5:00:00: Balanced after 2 trials
   
     6:00:00: Balanced after 3 trials
   
     7:00:00: Balanced after 3 trials
   
  WARNING: Negative pressures at 7:00:00 hrs.
  
     8:00:00: Balanced after 1 trials
   
  WARNING: Negative pressures at 8:00:00 hrs.
  
     9:00:00: Balanced after 2 trials
   
    10:00:00: Balanced after 1 trials
   
    11:00:00: Balanced after 2 trials
   
    12:00:00: Balanced after 2 trials
   
    13:00:00: Balanced after 1 trials
   
    14:00:00: Balanced after 3 trials
   
    15:00:00: Balanced after 2 trials
   
    16:00:00: Balanced after 3 trials
   
    17:00:00: Balanced after 2 trials
   
    18:00:00: Balanced after 2 trials
   
  WARNING: Negative pressures at 18:00:00 hrs.
  
    19:00:00: Balanced after 1 trials
   
  WARNING: Negative pressures at 19:00:00 hrs.
  
    20:00:00: Balanced after 1 trials
   
  WARNING: Negative pressures at 20:00:00 hrs.
  
    21:00:00: Balanced after 3 trials
   
    22:00:00: Balanced after 1 trials
   
    23:00:00: Balanced after 2 trials
   
    24:00:00: Balanced after 5 trials
   
   
  Hydraulic Status:
  -----------------------------------------------------------------------
     0:00:00: Balanced after 8 trials
     0:00:00: Tank TK0000004 is emptying at 30.00 m
     0:00:00: Tank TK0000003 is emptying at 30.00 m
     0:00:00: Tank TK0000002 is emptying at 30.00 m
     0:00:00: Tank TK0000001 is emptying at 30.00 m
     0:00:00: Pump PU0000013 closed
     0:00:00: Pump PU0000011 closed
     0:00:00: Pump PU0000010 closed
     0:00:00: Pump PU0000001 closed
   
     1:00:00: Balanced after 2 trials
   
     2:00:00: Balanced after 2 trials
   
     3:00:00: Balanced after 2 trials
   
     4:00:00: Balanced after 3 trials
   
     5:00:00: Balanced after 3 trials
   
     6:00:00: Balanced after 4 trials
   
     7:00:00: Balanced after 3 trials
   
     8:00:00: Balanced after 1 trials
   
     9:00:00: Balanced after 3 trials
   
    10:00:00: Balanced after 2 trials
   
    11:00:00: Balanced after 2 trials
   
    12:00:00: Balanced after 2 trials
   
    13:00:00: Balanced after 2 trials
   
    14:00:00: Balanced after 3 trials
   
    15:00:00: Balanced after 2 trials
   
    16:00:00: Balanced after 3 trials
   
    17:00:00: Balanced after 2 trials
   
    18:00:00: Balanced after 2 trials
   
    19:00:00: Balanced after 1 trials
   
    20:00:00: Balanced after 1 trials
   
    21:00:00: Balanced after 3 trials
   
    22:00:00: Balanced after 2 trials
   
    23:00:00: Balanced after 3 trials
   
    24:00:00: Balanced after 4 trials
   
   
  Hydraulic Status:
  -----------------------------------------------------------------------
     0:00:00: Balanced after 4 trials
     0:00:00: Tank TK0000004 is closed at 30.00 m
     0:00:00: Tank TK0000003 is emptying at 30.00 m
     0:00:00: Tank TK0000002 is closed at 30.00 m
     0:00:00: Tank TK0000001 is emptying at 30.00 m
     0:00:00: Pump PU0000013 closed
     0:00:00: Pump PU0000012 closed
     0:00:00: Pump PU0000011 closed
     0:00:00: Pump PU0000010 closed
     0:00:00: Pump PU0000009 closed
     0:00:00: Pump PU0000008 closed
     0:00:00: Pump PU0000005 closed
     0:00:00: Pump PU0000003 closed
     0:00:00: Pump PU0000002 closed
     0:00:00: Pump PU0000001 closed
   
     1:00:00: Balanced after 1 trials
   
     2:00:00: Balanced after 1 trials
   
     3:00:00: Balanced after 1 trials
   
     4:00:00: Balanced after 2 trials
   
     5:00:00: Balanced after 2 trials
   
  WARNING: Negative pressures at 5:00:00 hrs.
  
     6:00:00: Balanced after 3 trials
   
     7:00:00: Balanced after 3 trials
   
  WARNING: Negative pressures at 7:00:00 hrs.
  
     8:00:00: Balanced after 1 trials
   
  WARNING: Negative pressures at 8:00:00 hrs.
  
     9:00:00: Balanced after 2 trials
   
  WARNING: Negative pressures at 9:00:00 hrs.
  
    10:00:00: Balanced after 1 trials
   
  WARNING: Negative pressures at 10:00:00 hrs.
  
    11:00:00: Balanced after 2 trials
   
  WARNING: Negative pressures at 11:00:00 hrs.
  
    12:00:00: Balanced after 2 trials
   
  WARNING: Negative pressures at 12:00:00 hrs.
  
    13:00:00: Balanced after 1 trials
   
  WARNING: Negative pressures at 13:00:00 hrs.
  
    14:00:00: Balanced after 2 trials
   
    15:00:00: Balanced after 1 trials
   
    16:00:00: Balanced after 2 trials
   
  WARNING: Negative pressures at 16:00:00 hrs.
  
    17:00:00: Balanced after 2 trials
   
  WARNING: Negative pressures at 17:00:00 hrs.
  
    18:00:00: Balanced after 2 trials
   
  WARNING: Negative pressures at 18:00:00 hrs.
  
    19:00:00: Balanced after 1 trials
   
  WARNING: Negative pressures at 19:00:00 hrs.
  
    20:00:00: Balanced after 1 trials
   
  WARNING: Negative pressures at 20:00:00 hrs.
  
    21:00:00: Balanced after 2 trials
   
  WARNING: Negative pressures at 21:00:00 hrs.
  
[...]
     0:00:00: Pump PU0000001 closed
   
     1:00:00: Balanced after 2 trials
   
     2:00:00: Balanced after 2 trials
   
     3:00:00: Balanced after 2 trials
   
     4:00:00: Balanced after 3 trials
   
     5:00:00: Balanced after 2 trials
   
     6:00:00: Balanced after 3 trials
   
     7:00:00: Balanced after 3 trials
   
     8:00:00: Balanced after 2 trials
   
     9:00:00: Balanced after 3 trials
   
    10:00:00: Balanced after 2 trials
   
    11:00:00: Balanced after 2 trials
   
    12:00:00: Balanced after 2 trials
   
    13:00:00: Balanced after 2 trials
   
    14:00:00: Balanced after 3 trials
   
    15:00:00: Balanced after 2 trials
   
    16:00:00: Balanced after 3 trials
   
    17:00:00: Balanced after 2 trials
   
    18:00:00: Balanced after 2 trials
   
    19:00:00: Balanced after 2 trials
   
    20:00:00: Balanced after 2 trials
   
    21:00:00: Balanced after 3 trials
   
    22:00:00: Balanced after 2 trials
   
    23:00:00: Balanced after 3 trials
   
    24:00:00: Balanced after 5 trials
   
   
  Hydraulic Status:
  -----------------------------------------------------------------------
     0:00:00: Balanced after 9 trials
     0:00:00: Tank TK0000004 is emptying at 30.00 m
     0:00:00: Tank TK0000003 is emptying at 30.00 m
     0:00:00: Tank TK0000002 is emptying at 30.00 m
     0:00:00: Tank TK0000001 is closed at 30.00 m
     0:00:00: Pump PU0000013 closed
     0:00:00: Pump PU0000011 closed
     0:00:00: Pump PU0000010 closed
     0:00:00: Pump PU0000009 closed
     0:00:00: Pump PU0000008 closed
     0:00:00: Pump PU0000007 closed
     0:00:00: Pump PU0000006 closed
     0:00:00: Pump PU0000004 closed
     0:00:00: Pump PU0000003 closed
     0:00:00: Pump PU0000002 closed
   
     1:00:00: Balanced after 2 trials
   
     2:00:00: Balanced after 2 trials
   
     3:00:00: Balanced after 2 trials
   
     4:00:00: Balanced after 3 trials
   
     5:00:00: Balanced after 3 trials
   
     6:00:00: Balanced after 3 trials
   
     7:00:00: Balanced after 3 trials
   
     8:00:00: Balanced after 1 trials
   
     9:00:00: Balanced after 3 trials
   
    10:00:00: Balanced after 1 trials
   
    11:00:00: Balanced after 2 trials
   
    12:00:00: Balanced after 2 trials
   
    13:00:00: Balanced after 1 trials
   
    14:00:00: Balanced after 3 trials
   
    15:00:00: Balanced after 2 trials
   
    16:00:00: Balanced after 3 trials
   
    17:00:00: Balanced after 2 trials
   
    18:00:00: Balanced after 2 trials
   
    19:00:00: Balanced after 1 trials
   
    20:00:00: Balanced after 1 trials
   
    21:00:00: Balanced after 3 trials
   
    22:00:00: Balanced after 1 trials
   
    23:00:00: Balanced after 3 trials
   
    24:00:00: Balanced after 4 trials
   
   
  Hydraulic Status:
  -----------------------------------------------------------------------
     0:00:00: Balanced after 7 trials
     0:00:00: Tank TK0000004 is emptying at 30.00 m
     0:00:00: Tank TK0000003 is emptying at 30.00 m
     0:00:00: Tank TK0000002 is emptying at 30.00 m
     0:00:00: Tank TK0000001 is emptying at 30.00 m
     0:00:00: Pump PU0000013 closed
     0:00:00: Pump PU0000012 closed
     0:00:00: Pump PU0000011 closed
     0:00:00: Pump PU0000009 closed
     0:00:00: Pump PU0000007 closed
     0:00:00: Pump PU0000006 closed
     0:00:00: Pump PU0000004 closed
     0:00:00: Pump PU0000003 closed
   
     1:00:00: Balanced after 2 trials
   
     2:00:00: Balanced after 2 trials
   
     3:00:00: Balanced after 2 trials
   
     4:00:00: Balanced after 3 trials
   
     5:00:00: Balanced after 3 trials
   
     6:00:00: Balanced after 3 trials
   
     7:00:00: Balanced after 3 trials
   
     8:00:00: Balanced after 1 trials
   
     9:00:00: Balanced after 3 trials
   
    10:00:00: Balanced after 2 trials
   
    11:00:00: Balanced after 2 trials
   
    12:00:00: Balanced after 2 trials
   
    13:00:00: Balanced after 2 trials
   
    14:00:00: Balanced after 3 trials
   
    15:00:00: Balanced after 2 trials
   
    16:00:00: Balanced after 3 trials
   
    17:00:00: Balanced after 2 trials
   
    18:00:00: Balanced after 2 trials
   
    19:00:00: Balanced after 1 trials
   
    20:00:00: Balanced after 1 trials
   
    21:00:00: Balanced after 3 trials
   
    22:00:00: Balanced after 2 trials
   
    23:00:00: Balanced after 3 trials
   
    24:00:00: Balanced after 4 trials
   
   
  Hydraulic Status:
  -----------------------------------------------------------------------
     0:00:00: Balanced after 9 trials
     0:00:00: Tank TK0000004 is emptying at 30.00 m
     0:00:00: Tank TK0000003 is emptying at 30.00 m
     0:00:00: Tank TK0000002 is emptying at 30.00 m
     0:00:00: Tank TK0000001 is closed at 30.00 m
     0:00:00: Pump PU0000013 closed
     0:00:00: Pump PU0000012 closed
     0:00:00: Pump PU0000011 closed
     0:00:00: Pump PU0000009 closed
     0:00:00: Pump PU0000008 closed
     0:00:00: Pump PU0000007 closed
     0:00:00: Pump PU0000006 closed
     0:00:00: Pump PU0000005 closed
     0:00:00: Pump PU0000003 closed
   
     1:00:00: Balanced after 2 trials
   
     2:00:00: Balanced after 2 trials
   
     3:00:00: Balanced after 2 trials
   
     4:00:00: Balanced after 3 trials
   
     5:00:00: Balanced after 3 trials
   
     6:00:00: Balanced after 3 trials
   
     7:00:00: Balanced after 3 trials
   
     8:00:00: Balanced after 1 trials
   
     9:00:00: Balanced after 3 trials
   
    10:00:00: Balanced after 1 trials
   
    11:00:00: Balanced after 2 trials
   
    12:00:00: Balanced after 2 trials
   
    13:00:00: Balanced after 1 trials
   
    14:00:00: Balanced after 3 trials
   
    15:00:00: Balanced after 1 trials
   
    16:00:00: Balanced after 3 trials
   
    17:00:00: Balanced after 2 trials
   
    18:00:00: Balanced after 2 trials
   
    19:00:00: Balanced after 1 trials
   
    20:00:00: Balanced after 1 trials
   
    21:00:00: Balanced after 3 trials
   
    22:00:00: Balanced after 1 trials
   
    23:00:00: Balanced after 3 trials
   
    24:00:00: Balanced after 4 trials
   
   
  Hydraulic Status:
  -----------------------------------------------------------------------
     0:00:00: Balanced after 9 trials
     0:00:00: Tank TK0000004 is emptying at 30.00 m
     0:00:00: Tank TK0000003 is emptying at 30.00 m
     0:00:00: Tank TK0000002 is emptying at 30.00 m
     0:00:00: Tank TK0000001 is emptying at 30.00 m
     0:00:00: Pump PU0000013 closed
     0:00:00: Pump PU0000011 closed
     0:00:00: Pump PU0000010 closed
     0:00:00: Pump PU0000007 closed
     0:00:00: Pump PU0000006 closed
     0:00:00: Pump PU0000005 closed
     0:00:00: Pump PU0000002 closed
   
     1:00:00: Balanced after 2 trials
   
     2:00:00: Balanced after 2 trials
   
     3:00:00: Balanced after 2 trials
   
     4:00:00: Balanced after 3 trials
   
     5:00:00: Balanced after 3 trials
   
     6:00:00: Balanced after 3 trials
   
     7:00:00: Balanced after 3 trials
   
     8:00:00: Balanced after 1 trials
   
     9:00:00: Balanced after 3 trials
   
    10:00:00: Balanced after 2 trials
   
    11:00:00: Balanced after 2 trials
   
    12:00:00: Balanced after 2 trials
   
    13:00:00: Balanced after 2 trials
   
    14:00:00: Balanced after 3 trials
   
    15:00:00: Balanced after 2 trials
   
    16:00:00: Balanced after 3 trials
   
    17:00:00: Balanced after 2 trials
   
    18:00:00: Balanced after 2 trials
   
    19:00:00: Balanced after 1 trials
   
    20:00:00: Balanced after 1 trials
   
    21:00:00: Balanced after 3 trials
   
    22:00:00: Balanced after 2 trials
   
    23:00:00: Balanced after 3 trials
   
    24:00:00: Balanced after 4 trials
   
   
  Hydraulic Status:
  -----------------------------------------------------------------------
     0:00:00: Balanced after 8 trials
     0:00:00: Tank TK0000004 is emptying at 30.00 m
     0:00:00: Tank TK0000003 is emptying at 30.00 m
     0:00:00: Tank TK0000002 is emptying at 30.00 m
     0:00:00: Tank TK0000001 is emptying at 30.00 m
     0:00:00: Pump PU0000011 closed
     0:00:00: Pump PU0000008 closed
     0:00:00: Pump PU0000006 closed
     0:00:00: Pump PU0000003 closed
   
     1:00:00: Balanced after 2 trials
   
     2:00:00: Balanced after 2 trials
   
     3:00:00: Balanced after 2 trials
   
     4:00:00: Balanced after 3 trials
   
     5:00:00: Balanced after 2 trials
   
     6:00:00: Balanced after 3 trials
   
     7:00:00: Balanced after 3 trials
   
     8:00:00: Balanced after 2 trials
   
     9:00:00: Balanced after 3 trials
   
    10:00:00: Balanced after 2 trials
   
    11:00:00: Balanced after 2 trials
   
    12:00:00: Balanced after 2 trials
   
    13:00:00: Balanced after 2 trials
   
    14:00:00: Balanced after 3 trials
   
    15:00:00: Balanced after 2 trials
   
    16:00:00: Balanced after 3 trials
   
    17:00:00: Balanced after 2 trials
   
    18:00:00: Balanced after 2 trials
   
    19:00:00: Balanced after 2 trials
   
    20:00:00: Balanced after 2 trials
   
    21:00:00: Balanced after 3 trials
   
    22:00:00: Balanced after 2 trials
   
    23:00:00: Balanced after 3 trials
   
    24:00:00: Balanced after 7 trials
   
   
  Hydraulic Status:
  -----------------------------------------------------------------------
     0:00:00: Balanced after 9 trials
     0:00:00: Tank TK0000004 is emptying at 30.00 m
     0:00:00: Tank TK0000003 is emptying at 30.00 m
     0:00:00: Tank TK0000002 is emptying at 30.00 m
     0:00:00: Tank TK0000001 is closed at 30.00 m
     0:00:00: Pump PU0000011 closed
     0:00:00: Pump PU0000009 closed
     0:00:00: Pump PU0000008 closed
     0:00:00: Pump PU0000007 closed
     0:00:00: Pump PU0000005 closed
     0:00:00: Pump PU0000004 closed
     0:00:00: Pump PU0000003 closed
     0:00:00: Pump PU0000001 closed
   
     1:00:00: Balanced after 2 trials
   
     2:00:00: Balanced after 2 trials
   
     3:00:00: Balanced after 2 trials
   
     4:00:00: Balanced after 3 trials
   
     5:00:00: Balanced after 2 trials
   
     6:00:00: Balanced after 3 trials
   
     7:00:00: Balanced after 3 trials
   
     8:00:00: Balanced after 1 trials
   
     9:00:00: Balanced after 3 trials
   
    10:00:00: Balanced after 2 trials
   
    11:00:00: Balanced after 2 trials
   
    12:00:00: Balanced after 2 trials
   
    13:00:00: Balanced after 2 trials
   
    14:00:00: Balanced after 3 trials
   
    15:00:00: Balanced after 2 trials
   
    16:00:00: Balanced after 3 trials
   
    17:00:00: Balanced after 2 trials
   
    18:00:00: Balanced after 2 trials
   
    19:00:00: Balanced after 1 trials
   
    20:00:00: Balanced after 1 trials
   
    21:00:00: Balanced after 3 trials
   
    22:00:00: Balanced after 2 trials
   
    23:00:00: Balanced after 3 trials
   
    24:00:00: Balanced after 4 trials
   
   
  Hydraulic Status:
  -----------------------------------------------------------------------
     0:00:00: Balanced after 9 trials
     0:00:00: Tank TK0000004 is emptying at 30.00 m
     0:00:00: Tank TK0000003 is emptying at 30.00 m
     0:00:00: Tank TK0000002 is emptying at 30.00 m
     0:00:00: Tank TK0000001 is emptying at 30.00 m
     0:00:00: Pump PU0000011 closed
     0:00:00: Pump PU0000009 closed
     0:00:00: Pump PU0000007 closed
     0:00:00: Pump PU0000005 closed
     0:00:00: Pump PU0000003 closed
     0:00:00: Pump PU0000002 closed
   
     1:00:00: Balanced after 2 trials
   
     2:00:00: Balanced after 2 trials
   
     3:00:00: Balanced after 2 trials
   
     4:00:00: Balanced after 3 trials
   
     5:00:00: Balanced after 2 trials
   
     6:00:00: Balanced after 3 trials
   
     7:00:00: Balanced after 3 trials
   
     8:00:00: Balanced after 2 trials
   
     9:00:00: Balanced after 3 trials
   
    10:00:00: Balanced after 2 trials
   
    11:00:00: Balanced after 2 trials
   
    12:00:00: Balanced after 2 trials
   
    13:00:00: Balanced after 2 trials
   
    14:00:00: Balanced after 3 trials
   
    15:00:00: Balanced after 2 trials
   
    16:00:00: Balanced after 3 trials
   
    17:00:00: Balanced after 2 trials
   
    18:00:00: Balanced after 2 trials
   
    19:00:00: Balanced after 2 trials
   
    20:00:00: Balanced after 2 trials
   
    21:00:00: Balanced after 3 trials
   
    22:00:00: Balanced after 2 trials
   
    23:00:00: Balanced after 3 trials
   
    24:00:00: Balanced after 7 trials
   
   
  Hydraulic Status:
  -----------------------------------------------------------------------
     0:00:00: Balanced after 9 trials
     0:00:00: Tank TK0000004 is emptying at 30.00 m
     0:00:00: Tank TK0000003 is emptying at 30.00 m
     0:00:00: Tank TK0000002 is emptying at 30.00 m
     0:00:00: Tank TK0000001 is emptying at 30.00 m
     0:00:00: Pump PU0000012 closed
     0:00:00: Pump PU0000011 closed
     0:00:00: Pump PU0000008 closed
     0:00:00: Pump PU0000005 closed
     0:00:00: Pump PU0000003 closed
     0:00:00: Pump PU0000002 closed
     0:00:00: Pump PU0000001 closed
   
     1:00:00: Balanced after 2 trials
   
     2:00:00: Balanced after 2 trials
   
     3:00:00: Balanced after 2 trials
   
     4:00:00: Balanced after 3 trials
   
     5:00:00: Balanced after 3 trials
   
     6:00:00: Balanced after 4 trials
   
     7:00:00: Balanced after 3 trials
   
     8:00:00: Balanced after 1 trials
   
     9:00:00: Balanced after 3 trials
   
    10:00:00: Balanced after 2 trials
   
    11:00:00: Balanced after 2 trials
   
    12:00:00: Balanced after 2 trials
   
    13:00:00: Balanced after 2 trials
   
    14:00:00: Balanced after 3 trials
   
    15:00:00: Balanced after 2 trials
   
    16:00:00: Balanced after 3 trials
   
    17:00:00: Balanced after 2 trials
   
    18:00:00: Balanced after 2 trials
   
    19:00:00: Balanced after 1 trials
   
    20:00:00: Balanced after 1 trials
   
    21:00:00: Balanced after 3 trials
   
    22:00:00: Balanced after 2 trials
   
    23:00:00: Balanced after 3 trials
   
    24:00:00: Balanced after 4 trials
   
   
  Hydraulic Status:
  -----------------------------------------------------------------------
     0:00:00: Balanced after 7 trials
     0:00:00: Tank TK0000004 is emptying at 30.00 m
     0:00:00: Tank TK0000003 is closed at 30.00 m
     0:00:00: Tank TK0000002 is closed at 30.00 m
     0:00:00: Tank TK0000001 is emptying at 30.00 m
     0:00:00: Pump PU0000012 closed
     0:00:00: Pump PU0000011 closed
     0:00:00: Pump PU0000010 closed
     0:00:00: Pump PU0000009 closed
     0:00:00: Pump PU0000007 closed
     0:00:00: Pump PU0000006 closed
     0:00:00: Pump PU0000005 closed
     0:00:00: Pump PU0000004 closed
     0:00:00: Pump PU0000001 closed
   
     1:00:00: Balanced after 2 trials
   
     2:00:00: Balanced after 2 trials
   
     3:00:00: Balanced after 2 trials
   
     4:00:00: Balanced after 2 trials
   
     5:00:00: Balanced after 2 trials
   
     6:00:00: Balanced after 3 trials
   
     7:00:00: Balanced after 3 trials
   
  WARNING: Negative pressures at 7:00:00 hrs.
  
     8:00:00: Balanced after 1 trials
   
  WARNING: Negative pressures at 8:00:00 hrs.
  
     9:00:00: Balanced after 2 trials
   
    10:00:00: Balanced after 1 trials
   
    11:00:00: Balanced after 2 trials
   
  WARNING: Negative pressures at 11:00:00 hrs.
  
    12:00:00: Balanced after 2 trials
   
    13:00:00: Balanced after 1 trials
   
    14:00:00: Balanced after 3 trials
   
    15:00:00: Balanced after 1 trials
   
    16:00:00: Balanced after 3 trials
   
    17:00:00: Balanced after 2 trials
   
  WARNING: Negative pressures at 17:00:00 hrs.
  
    18:00:00: Balanced after 2 trials
   
  WARNING: Negative pressures at 18:00:00 hrs.
  
    19:00:00: Balanced after 1 trials
   
  WARNING: Negative pressures at 19:00:00 hrs.
  
    20:00:00: Balanced after 1 trials
   
  WARNING: Negative pressures at 20:00:00 hrs.
  
    21:00:00: Balanced after 2 trials
   
    22:00:00: Balanced after 1 trials
   
    23:00:00: Balanced after 2 trials
   
    24:00:00: Balanced after 4 trials
   
   
  Hydraulic Status:
  -----------------------------------------------------------------------
     0:00:00: Balanced after 9 trials
     0:00:00: Tank TK0000004 is emptying at 30.00 m
     0:00:00: Tank TK0000003 is emptying at 30.00 m
     0:00:00: Tank TK0000002 is emptying at 30.00 m
     0:00:00: Tank TK0000001 is emptying at 30.00 m
     0:00:00: Pump PU0000012 closed
     0:00:00: Pump PU0000011 closed
     0:00:00: Pump PU0000008 closed
     0:00:00: Pump PU0000004 closed
     0:00:00: Pump PU0000003 closed
     0:00:00: Pump PU0000002 closed
     0:00:00: Pump PU0000001 closed
   
     1:00:00: Balanced after 2 trials
   
     2:00:00: Balanced after 2 trials
   
     3:00:00: Balanced after 2 trials
   
     4:00:00: Balanced after 3 trials
   
     5:00:00: Balanced after 3 trials
   
     6:00:00: Balanced after 4 trials
   
     7:00:00: Balanced after 3 trials
   
     8:00:00: Balanced after 1 trials
   
     9:00:00: Balanced after 3 trials
   
    10:00:00: Balanced after 2 trials
   
    11:00:00: Balanced after 2 trials
   
    12:00:00: Balanced after 2 trials
   
    13:00:00: Balanced after 2 trials
   
    14:00:00: Balanced after 3 trials
   
    15:00:00: Balanced after 2 trials
   
    16:00:00: Balanced after 3 trials
   
    17:00:00: Balanced after 2 trials
   
    18:00:00: Balanced after 2 trials
   
    19:00:00: Balanced after 1 trials
   
    20:00:00: Balanced after 1 trials
   
    21:00:00: Balanced after 3 trials
   
    22:00:00: Balanced after 2 trials
   
    23:00:00: Balanced after 3 trials
   
    24:00:00: Balanced after 4 trials
   
   
  Hydraulic Status:
  -----------------------------------------------------------------------
     0:00:00: Balanced after 7 trials
     0:00:00: Tank TK0000004 is emptying at 30.00 m
     0:00:00: Tank TK0000003 is closed at 30.00 m
     0:00:00: Tank TK0000002 is closed at 30.00 m
     0:00:00: Tank TK0000001 is emptying at 30.00 m
     0:00:00: Pump PU0000013 closed
     0:00:00: Pump PU0000012 closed
     0:00:00: Pump PU0000011 closed
     0:00:00: Pump PU0000010 closed
     0:00:00: Pump PU0000009 closed
     0:00:00: Pump PU0000006 closed
     0:00:00: Pump PU0000005 closed
     0:00:00: Pump PU0000004 closed
     0:00:00: Pump PU0000003 closed
     0:00:00: Pump PU0000002 closed
   
     1:00:00: Balanced after 2 trials
   
     2:00:00: Balanced after 2 trials
   
     3:00:00: Balanced after 2 trials
   
     4:00:00: Balanced after 3 trials
   
     5:00:00: Balanced after 2 trials
   
     6:00:00: Balanced after 3 trials
   
     7:00:00: Balanced after 3 trials
   
  WARNING: Negative pressures at 7:00:00 hrs.
  
     8:00:00: Balanced after 1 trials
   
  WARNING: Negative pressures at 8:00:00 hrs.
  
     9:00:00: Balanced after 2 trials
   
    10:00:00: Balanced after 1 trials
   
    11:00:00: Balanced after 2 trials
   
  WARNING: Negative pressures at 11:00:00 hrs.
  
    12:00:00: Balanced after 2 trials
   
  WARNING: Negative pressures at 12:00:00 hrs.
  
    13:00:00: Balanced after 1 trials
   
  WARNING: Negative pressures at 13:00:00 hrs.
  
    14:00:00: Balanced after 3 trials
   
    15:00:00: Balanced after 1 trials
   
    16:00:00: Balanced after 3 trials
   
  WARNING: Negative pressures at 16:00:00 hrs.
  
    17:00:00: Balanced after 2 trials
   
  WARNING: Negative pressures at 17:00:00 hrs.
  
    18:00:00: Balanced after 2 trials
   
  WARNING: Negative pressures at 18:00:00 hrs.
  
    19:00:00: Balanced after 1 trials
   
  WARNING: Negative pressures at 19:00:00 hrs.
  
    20:00:00: Balanced after 1 trials
   
  WARNING: Negative pressures at 20:00:00 hrs.
  
    21:00:00: Balanced after 3 trials
   
  WARNING: Negative pressures at 21:00:00 hrs.
  
    22:00:00: Balanced after 1 trials
   
  WARNING: Negative pressures at 22:00:00 hrs.
  
    23:00:00: Balanced after 2 trials
   
    24:00:00: Balanced after 4 trials
   
  Analysis ended Mon Nov 30 17:33:42 2020
